geometry optimzed in LAMMPS
_audit_creation_date              2020-11-30 
_audit_creation_method            'lammps2cif' 
_symmetry_space_group_name_H-M    'P1' 
_symmetry_Int_Tables_number       1 
_symmetry_cell_setting            triclinic 
loop_ 
_symmetry_equiv_pos_as_xyz 
  x,y,z 
_cell_length_a                    39.65992024 
_cell_length_b                    39.79135816341322 
_cell_length_c                    39.804222546369594 
_cell_angle_alpha                 90.09302679588507 
_cell_angle_beta                  90.08098847703452 
_cell_angle_gamma                 90.1416149402603 
loop_ 
_atom_site_label 
_atom_site_type_symbol 
_atom_site_fract_x 
_atom_site_fract_y 
_atom_site_fract_z 
_atom_site_charge 
O1          O  0.57779169  0.65967812  0.65043661    -0.79100
C2          C  0.65449489  0.67658958  0.56952786     0.82000
O3          O  0.56213970  0.60062003  0.53625695    -0.80200
O4          O  0.65934640  0.55949299  0.54903508    -0.81700
O5          O  0.65644914  0.55989520  0.65805091    -0.81500
O6          O  0.59779539  0.61834190  0.68287685    -0.80100
Zn7        Zn  0.59155402  0.64599387  0.60206212     1.55700
O8          O  0.69003638  0.58538477  0.62063259    -0.81500
Cd9        Cd  0.60862725  0.58075163  0.64814141     1.59700
Cd10       Cd  0.58086355  0.57153890  0.57471473     1.59600
O11         O  0.56703652  0.54794403  0.65285453    -0.81500
O12         O  0.60961034  0.60095391  0.60269137    -1.92000
Cd13       Cd  0.65582580  0.59976122  0.58329384     1.59900
O14         O  0.54104944  0.55294361  0.60338341    -0.81500
O15         O  0.66787328  0.64782653  0.56368410    -0.80100
C16         C  0.55123708  0.63068102  0.53796936     0.82400
C17         C  0.58401759  0.64711828  0.67950269     0.82100
O18         O  0.62731146  0.67936907  0.58640067    -0.79100
C19         C  0.68586591  0.56664079  0.64638579     0.82900
O20         O  0.55561923  0.64897898  0.56424335    -0.79200
C21         C  0.54111084  0.54366275  0.63405914     0.83000
C22         C  0.64073853  0.53331864  0.54566547     0.83400
O23         O  0.61028754  0.53260957  0.55601557    -0.81600
O24         O  0.85939013  0.56728964  0.34358275    -0.79100
C25         C  0.93456273  0.64914053  0.32566595     0.82000
O26         O  0.97289869  0.55711388  0.40289859    -0.80200
O27         O  0.95794391  0.65314777  0.44223773    -0.81700
O28         O  0.84525827  0.65009751  0.43840419    -0.81500
O29         O  0.82580292  0.58838816  0.38350123    -0.80100
Zn30       Zn  0.90679821  0.58429632  0.35677402     1.55700
O31         O  0.88579431  0.68269943  0.41665739    -0.81500
Cd32       Cd  0.85895357  0.60207522  0.42084079     1.59700
Cd33       Cd  0.93258883  0.57474779  0.43086687     1.59600
O34         O  0.85396325  0.56170181  0.45435637    -0.81500
O35         O  0.90486088  0.60312693  0.40128662    -1.92000
Cd36       Cd  0.92328220  0.64945364  0.40246816     1.59900
O37         O  0.90286321  0.53480106  0.44795905    -0.81500
O38         O  0.93969324  0.66345612  0.35409419    -0.80100
C39         C  0.97221735  0.54678682  0.37256523     0.82400
C40         C  0.82999872  0.57276535  0.35587124     0.82100
O41         O  0.92069612  0.62027418  0.32343168    -0.79100
C42         C  0.85797892  0.67907824  0.43224847     0.82900
O43         O  0.94611358  0.55060905  0.35392189    -0.79200
C44         C  0.87209697  0.53529277  0.45743351     0.83000
C45         C  0.96107635  0.63495576  0.46862407     0.83400
O46         O  0.94992688  0.60483974  0.46989985    -0.81600
O47         O  0.93852618  0.45590680  0.14607057    -0.79100
C48         C  0.86395145  0.46630498  0.05891034     0.82000
O49         O  0.82601893  0.39642599  0.15344943    -0.80200
O50         O  0.84764288  0.34673706  0.05883043    -0.81700
O51         O  0.95702448  0.35950045  0.06420226    -0.81500
O52         O  0.97433282  0.41853001  0.12485905    -0.80100
Zn53       Zn  0.89289128  0.44124484  0.12433317     1.55700
O54         O  0.91674574  0.37882280  0.03039450    -0.81500
Cd55       Cd  0.94241390  0.37913026  0.11164924     1.59700
Cd56       Cd  0.86622302  0.36737318  0.13736652     1.59600
O57         O  0.94587358  0.34766560  0.15410376    -0.81500
O58         O  0.89548426  0.39546270  0.10881455    -1.92000
Cd59       Cd  0.87779031  0.39038068  0.06272150     1.59900
O60         O  0.89475596  0.35134726  0.17750329    -0.81500
O61         O  0.85641504  0.43656808  0.04884404    -0.80100
C62         C  0.82464854  0.42796882  0.15921726     0.82400
C63         C  0.96878873  0.44540874  0.14153267     0.82100
O64         O  0.88256411  0.47108179  0.08470528    -0.79100
C65         C  0.94477671  0.36384479  0.03457474     0.82900
O66         O  0.84998273  0.44713045  0.15325418    -0.79200
C67         C  0.92569441  0.34275699  0.17882669     0.83000
C68         C  0.84251245  0.32247488  0.07935763     0.83400
O69         O  0.84914506  0.32560420  0.11059873    -0.81600
C70         C  0.74697500  0.62167517  0.00784159     0.79600
N71         N  0.71700810  0.60457953  0.00466808    -0.78700
C72         C  0.71660934  0.57023611  0.00632680     0.82100
N73         N  0.74591196  0.55363225  0.01070800    -0.78600
C74         C  0.77551819  0.56993082  0.01418753     0.82200
N75         N  0.77619225  0.60412358  0.01268037    -0.80300
C76         C  0.12857497  0.50415198  0.25301776     0.79600
N77         N  0.11214030  0.50924131  0.28293852    -0.78700
C78         C  0.07766335  0.50901149  0.28391113     0.82100
N79         N  0.06020501  0.50321317  0.25535135    -0.78600
C80         C  0.07561368  0.49759342  0.22575393     0.82200
N81         N  0.11006654  0.49823369  0.22441721    -0.80300
O82         O  0.57216350  0.33871644  0.85361773    -0.79100
C83         C  0.65019036  0.32208874  0.93344719     0.82000
O84         O  0.55573764  0.39700445  0.96652467    -0.80200
O85         O  0.65121735  0.43931738  0.95633412    -0.81700
O86         O  0.65365994  0.43602050  0.84450632    -0.81500
O87         O  0.59338172  0.37940545  0.82107310    -0.80100
Zn88       Zn  0.58718139  0.35199816  0.90147908     1.55700
O89         O  0.68505469  0.41378063  0.88572145    -0.81500
Cd90       Cd  0.60498009  0.41713667  0.85517161     1.59700
Cd91       Cd  0.57419484  0.42601026  0.92763131     1.59600
O92         O  0.56428503  0.45063225  0.84936541    -0.81500
O93         O  0.60456089  0.39731238  0.90086709    -1.92000
Cd94       Cd  0.64993410  0.39916855  0.92190258     1.59900
O95         O  0.53531981  0.44367599  0.89692413    -0.81500
O96         O  0.66249217  0.35099827  0.94104701    -0.80100
C97         C  0.54715975  0.36612147  0.96594683     0.82400
C98         C  0.57881142  0.35099497  0.82455490     0.82100
O99         O  0.62375936  0.31915022  0.91540848    -0.79100
C100        C  0.68233292  0.43007120  0.85821085     0.82900
O101        O  0.55269711  0.34738531  0.94027477    -0.79200
C102        C  0.53731178  0.45426428  0.86670839     0.83000
C103        C  0.63217546  0.46517465  0.95907200     0.83400
O104        O  0.60222735  0.46555921  0.94727869    -0.81600
O105        O  0.45979932  0.14124714  0.93862761    -0.79100
C106        C  0.47488197  0.05358316  0.86454002     0.82000
O107        O  0.40227003  0.14528672  0.82509158    -0.80200
O108        O  0.35575608  0.04913170  0.84850992    -0.81700
O109        O  0.36281936  0.05854554  0.95506250    -0.81500
O110        O  0.42229232  0.11831897  0.97340905    -0.80100
Zn111      Zn  0.44726638  0.11893198  0.89273292     1.55700
O112        O  0.38706751  0.02394294  0.91840365    -0.81500
Cd113      Cd  0.38376948  0.10537822  0.94081735     1.59700
Cd114      Cd  0.37306747  0.12915398  0.86492384     1.59600
O115        O  0.35306964  0.14834614  0.94370668    -0.81500
O116        O  0.40182113  0.10207205  0.89478947    -1.92000
Cd117      Cd  0.39868854  0.05531841  0.87885179     1.59900
O118        O  0.35632693  0.17009637  0.89219809    -0.81500
O119        O  0.44535702  0.04205814  0.85807670    -0.80100
C120        C  0.43352568  0.15297135  0.82452821     0.82400
C121        C  0.44850322  0.13631808  0.96847973     0.82100
O122        O  0.47893757  0.08031555  0.88199022    -0.79100
C123        C  0.36903426  0.02867245  0.94442350     0.82900
O124        O  0.45234300  0.14855306  0.85037353    -0.79200
C125        C  0.34842922  0.17270351  0.92313854     0.83000
C126        C  0.33089029  0.06862272  0.84226841     0.83400
O127        O  0.33263229  0.10018994  0.84791803    -0.81600
C128        C  0.50085541  0.25321983  0.12624056     0.79600
N129        N  0.50631638  0.28236151  0.10857296    -0.78700
C130        C  0.50609758  0.28192538  0.07420383     0.82100
N131        N  0.50018941  0.25273287  0.05800968    -0.78600
C132        C  0.49449800  0.22381981  0.07459244     0.82200
N133        N  0.49488395  0.22386081  0.10898566    -0.80300
C134        C  0.50666937  0.25105662  0.66270368     0.79600
N135        N  0.49017254  0.22592665  0.67957813    -0.78700
C136        C  0.49060111  0.22520500  0.71383936     0.82100
N137        N  0.50830237  0.24862903  0.73078269    -0.78600
C138        C  0.52522973  0.27335863  0.71492019     0.82200
N139        N  0.52429570  0.27487023  0.68058111    -0.80300
C140        C  0.63204907  0.99962455  0.74968796     0.79600
N141        N  0.61505235  0.99510113  0.72003527    -0.78700
C142        C  0.58063297  0.99637257  0.71925256     0.82100
N143        N  0.56365690  0.00279099  0.74798303    -0.78600
C144        C  0.57991122  0.00767489  0.77747353     0.82200
N145        N  0.61424604  0.00575384  0.77843840    -0.80300
C146        C  0.92848279  0.99681442  0.28474396     0.79600
N147        N  0.94577290  0.00202977  0.25602937    -0.78700
C148        C  0.93013074  0.00604228  0.22618703     0.82100
N149        N  0.89563890  0.00528597  0.22496533    -0.78600
C150        C  0.87735366  0.00017402  0.25379388     0.82200
N151        N  0.89403107  0.99609657  0.28372251    -0.80300
C152        C  0.25552749  0.33602373  0.99785018     0.79600
N153        N  0.23065802  0.31841557  0.01398800    -0.78700
C154        C  0.23150469  0.28414255  0.01456793     0.82100
N155        N  0.25659423  0.26779240  0.99869692    -0.78600
C156        C  0.28107830  0.28462317  0.98225628     0.82200
N157        N  0.28085335  0.31892320  0.98193235    -0.80300
C158        C  0.25248923  0.87328435  0.99851654     0.79600
N159        N  0.22260055  0.88953616  0.00416852    -0.78700
C160        C  0.22153134  0.92381717  0.00464947     0.82100
N161        N  0.25011277  0.94137701  0.99909691    -0.78600
C162        C  0.27999283  0.92608338  0.99390846     0.82200
N163        N  0.28126219  0.89176228  0.99342813    -0.80300
C164        C  0.28704857  0.97927447  0.28369819     0.79600
N165        N  0.32145018  0.97973560  0.28416657    -0.78700
C166        C  0.33893803  0.99492726  0.25868537     0.82100
N167        N  0.32147634  0.00982477  0.23289959    -0.78600
C168        C  0.28697124  0.00930070  0.23283822     0.82200
N169        N  0.27042303  0.99394105  0.25811388    -0.80300
C170        C  0.00515683  0.25263216  0.87755764     0.79600
N171        N  0.99915387  0.28129535  0.89589447    -0.78700
C172        C  0.99968431  0.28017908  0.93029869     0.82100
N173        N  0.00569158  0.25061874  0.94570160    -0.78600
C174        C  0.01196768  0.22222660  0.92833930     0.82200
N175        N  0.01152514  0.22308689  0.89406495    -0.80300
C176        C  0.00185298  0.24686136  0.33961458     0.79600
N177        N  0.01750409  0.22207370  0.32147029    -0.78700
C178        C  0.01664862  0.22286385  0.28716844     0.82100
N179        N  0.00033487  0.24799683  0.27144238    -0.78600
C180        C  0.98483818  0.27258366  0.28878399     0.82200
N181        N  0.98558245  0.27226583  0.32303466    -0.80300
O182        O  0.06384141  0.04414024  0.14268152    -0.79100
C183        C  0.13988037  0.02946300  0.05663475     0.82000
O184        O  0.17784746  0.10252910  0.15156648    -0.80200
O185        O  0.15559935  0.14858138  0.05384082    -0.81700
O186        O  0.04929165  0.14109144  0.06094570    -0.81500
O187        O  0.03002470  0.08322260  0.12136906    -0.80100
Zn188      Zn  0.11093752  0.05691003  0.12247428     1.55700
O189        O  0.08589508  0.11626102  0.02656823    -0.81500
Cd190      Cd  0.06305981  0.12092027  0.10794747     1.59700
Cd191      Cd  0.13803139  0.13108694  0.13384607     1.59600
O192        O  0.05913484  0.15300416  0.14959459    -0.81500
O193        O  0.10901703  0.10222293  0.10564793    -1.92000
Cd194      Cd  0.12534683  0.10543423  0.05890269     1.59900
O195        O  0.10955006  0.14834818  0.17395570    -0.81500
O196        O  0.14598366  0.05893650  0.04515336    -0.80100
C197        C  0.17791202  0.07169033  0.16025165     0.82400
C198        C  0.03414575  0.05641500  0.13828579     0.82100
O199        O  0.12339325  0.02539318  0.08395095    -0.79100
C200        C  0.05967224  0.13418004  0.03122359     0.82900
O201        O  0.15230107  0.05274612  0.15427987    -0.79200
C202        C  0.07870728  0.15734373  0.17487606     0.83000
C203        C  0.16122286  0.17330469  0.07375720     0.83400
O204        O  0.15506009  0.17128910  0.10517992    -0.81600
O205        O  0.46652415  0.86399111  0.55745864    -0.79100
C206        C  0.47615761  0.95096428  0.63101446     0.82000
O207        O  0.40956481  0.85050735  0.66834850    -0.80200
O208        O  0.35719845  0.94449245  0.65031750    -0.81700
O209        O  0.36660267  0.94147958  0.53890319    -0.81500
O210        O  0.42650966  0.88101899  0.52209321    -0.80100
Zn211      Zn  0.45230972  0.88445132  0.60300296     1.55700
O212        O  0.38359550  0.97575467  0.57986710    -0.81500
Cd213      Cd  0.38748967  0.89457108  0.55392965     1.59700
Cd214      Cd  0.37975889  0.86704328  0.62893123     1.59600
O215        O  0.35558154  0.85196259  0.55058715    -0.81500
O216        O  0.40578210  0.89804185  0.60034992    -1.92000
Cd217      Cd  0.39944190  0.94406204  0.61820375     1.59900
O218        O  0.36376455  0.82703756  0.59992700    -0.81500
O219        O  0.44614751  0.96069668  0.63818679    -0.80100
C220        C  0.44144401  0.84659199  0.67000128     0.82400
C221        C  0.45458125  0.86641309  0.52753872     0.82100
O222        O  0.48118721  0.92486490  0.61305130    -0.79100
C223        C  0.36906533  0.97113583  0.55161084     0.82900
O224        O  0.46044681  0.85492801  0.64532967    -0.79200
C225        C  0.35277501  0.82623075  0.56984445     0.83000
C226        C  0.33389811  0.92266371  0.65528787     0.83400
O227        O  0.33791866  0.89185569  0.64739735    -0.81600
O228        O  0.06913070  0.83992357  0.35970631    -0.79100
C229        C  0.14538766  0.82593450  0.44118098     0.82000
O230        O  0.05185960  0.89842789  0.47346606    -0.80200
O231        O  0.14897673  0.94270145  0.46028281    -0.81700
O232        O  0.14899446  0.93596615  0.34915053    -0.81500
O233        O  0.08850108  0.88136455  0.32716160    -0.80100
Zn234      Zn  0.08283976  0.85459571  0.40770478     1.55700
O235        O  0.18038852  0.91385098  0.39040989    -0.81500
Cd236      Cd  0.10025220  0.91905508  0.36120924     1.59700
Cd237      Cd  0.07061748  0.92883615  0.43513451     1.59600
O238        O  0.06020526  0.95322922  0.35595930    -0.81500
O239        O  0.10001500  0.90005937  0.40725015    -1.92000
Cd240      Cd  0.14561629  0.90187939  0.42744310     1.59900
O241        O  0.03214515  0.94700291  0.40431820    -0.81500
O242        O  0.15745818  0.85492664  0.44853877    -0.80100
C243        C  0.04323740  0.86747333  0.47230848     0.82400
C244        C  0.07493111  0.85249926  0.33060348     0.82100
O245        O  0.11922487  0.82260371  0.42286648    -0.79100
C246        C  0.17764721  0.92912588  0.36237701     0.82900
O247        O  0.04801367  0.84952896  0.44593673    -0.79200
C248        C  0.03367941  0.95715011  0.37390084     0.83000
C249        C  0.12990632  0.96811567  0.46525208     0.83400
O250        O  0.09929742  0.96848591  0.45513774    -0.81600
C251        C  0.00216178  0.74858972  0.62924092     0.79600
N252        N  0.99987764  0.71927251  0.61125986    -0.78700
C253        C  0.99937593  0.72000244  0.57699793     0.82100
N254        N  0.00150952  0.74983434  0.56115416    -0.78600
C255        C  0.00363675  0.77915448  0.57801215     0.82200
N256        N  0.00407522  0.77871470  0.61241358    -0.80300
C257        C  0.25017329  0.12521319  0.50014412     0.79600
N258        N  0.27970239  0.10737636  0.50215035    -0.78700
C259        C  0.27893564  0.07300431  0.50277359     0.82100
N260        N  0.24886614  0.05713056  0.50187156    -0.78600
C261        C  0.21936802  0.07391929  0.50001921     0.82200
N262        N  0.21999396  0.10824261  0.49935256    -0.80300
C263        C  0.24845368  0.66435292  0.50409873     0.79600
N264        N  0.22044051  0.68199084  0.49408417    -0.78700
C265        C  0.22042552  0.71633200  0.49553736     0.82100
N266        N  0.24813439  0.73258872  0.50647927    -0.78600
C267        C  0.27596902  0.71600604  0.51625696     0.82200
N268        N  0.27633729  0.68165295  0.51524145    -0.80300
C269        C  0.01337831  0.74817394  0.16747423     0.79600
N270        N  0.99440232  0.72427547  0.18357224    -0.78700
C271        C  0.99308013  0.72372887  0.21787872     0.82100
N272        N  0.01109490  0.74630216  0.23569935    -0.78600
C273        C  0.03029691  0.76982698  0.22056861     0.82200
N274        N  0.03100056  0.77134681  0.18622983    -0.80300
C275        C  0.16736780  0.98798398  0.75153621     0.79600
N276        N  0.18497780  0.97049544  0.72758650    -0.78700
C277        C  0.21941159  0.96929966  0.72899474     0.82100
N278        N  0.23589268  0.98662970  0.75309948    -0.78600
C279        C  0.21920325  0.00466431  0.77639625     0.82200
N280        N  0.18474326  0.00516560  0.77597390    -0.80300
C281        C  0.74810981  0.15813247  0.00418613     0.79600
N282        N  0.77290531  0.17534480  0.02121111    -0.78700
C283        C  0.77236232  0.20971487  0.02243400     0.82100
N284        N  0.74778938  0.22651302  0.00623123    -0.78600
C285        C  0.72336673  0.21037757  0.98893883     0.82200
N286        N  0.72308482  0.17593969  0.98827232    -0.80300
C287        C  0.51190474  0.75368500  0.83700285     0.79600
N288        N  0.49684482  0.77833172  0.81816795    -0.78700
C289        C  0.49951574  0.77793017  0.78390587     0.82100
N290        N  0.51756081  0.75356083  0.76889551    -0.78600
C291        C  0.53273626  0.72901467  0.78665460     0.82200
N292        N  0.52969826  0.72876854  0.82094934    -0.80300
C293        C  0.50222207  0.74195268  0.37851093     0.79600
N294        N  0.50049318  0.77210539  0.39522115    -0.78700
C295        C  0.50178258  0.77288531  0.42955185     0.82100
N296        N  0.50435858  0.74372753  0.44651176    -0.78600
C297        C  0.50672846  0.71387793  0.43074731     0.82200
N298        N  0.50555815  0.71279390  0.39649407    -0.80300
C299        C  0.75374185  0.83907612  0.49935310     0.79600
N300        N  0.72699152  0.82125423  0.51231814    -0.78700
C301        C  0.72608774  0.78693172  0.50939055     0.82100
N302        N  0.75151217  0.77101599  0.49355330    -0.78600
C303        C  0.77799562  0.78790756  0.48078597     0.82200
N304        N  0.77946031  0.82204747  0.48391585    -0.80300
C305        C  0.38039946  0.49841610  0.74684862     0.79600
N306        N  0.39837575  0.50086450  0.71736344    -0.78700
C307        C  0.43292713  0.49979942  0.71797979     0.82100
N308        N  0.44881691  0.49671855  0.74776382    -0.78600
C309        C  0.43200596  0.49401448  0.77702314     0.82200
N310        N  0.39752691  0.49501014  0.77669830    -0.80300
C311        C  0.84319806  0.49493479  0.75218303     0.79600
N312        N  0.82538911  0.50705651  0.72520126    -0.78700
C313        C  0.79096343  0.50539280  0.72483700     0.82100
N314        N  0.77472311  0.49158601  0.75123502    -0.78600
C315        C  0.79159375  0.47947353  0.77803038     0.82200
N316        N  0.82603121  0.48123287  0.77876169    -0.80300
C317        C  0.75608999  0.37582303  0.50162130     0.79600
N318        N  0.72603176  0.39278688  0.50365723    -0.78700
C319        C  0.72553912  0.42708407  0.50209792     0.82100
N320        N  0.75485272  0.44393960  0.49898451    -0.78600
C321        C  0.78481843  0.42812392  0.49739762     0.80600
N322        N  0.78561281  0.39374433  0.49848004    -0.80300
C323        C  0.66507838  0.50533185  0.25819850     0.79600
N324        N  0.68437497  0.52251047  0.28120331    -0.78700
C325        C  0.71875341  0.52215717  0.27850395     0.82100
N326        N  0.73334080  0.50397898  0.25395832    -0.78600
C327        C  0.71499896  0.48671161  0.23132666     0.82200
N328        N  0.68063872  0.48783146  0.23287667    -0.80300
O329        O  0.08904229  0.37841191  0.67917340    -0.79100
C330        C  0.17981160  0.42770889  0.64611808     0.82000
O331        O  0.03534645  0.44234108  0.60152278    -0.80200
O332        O  0.15274264  0.43968801  0.54795840    -0.81700
O333        O  0.11947688  0.31830626  0.58596368    -0.81500
O334        O  0.06293807  0.34007595  0.64729159    -0.80100
Zn335      Zn  0.10269211  0.41514025  0.64621289     1.55700
O336        O  0.16091235  0.35041208  0.56475170    -0.81500
Cd337      Cd  0.08247423  0.35225828  0.59960696     1.59700
Cd338      Cd  0.07465515  0.42566888  0.57191060     1.59600
O339        O  0.04828737  0.34855867  0.55966689    -0.81500
O340        O  0.10300327  0.39761991  0.60114177    -1.92000
Cd341      Cd  0.14877144  0.39898642  0.58152677     1.59900
O342        O  0.05680595  0.39646093  0.53180349    -0.81500
O343        O  0.18343062  0.41272817  0.61803028    -0.80100
C344        C  0.03676485  0.45232277  0.63196819     0.82400
C345        C  0.07080607  0.35209320  0.67616936     0.82100
O346        O  0.15054823  0.43229318  0.65911993    -0.79100
C347        C  0.14756511  0.32161142  0.57068664     0.82900
O348        O  0.06331449  0.44864083  0.65003887    -0.79200
C349        C  0.04530018  0.36645833  0.53315253     0.83000
C350        C  0.13437503  0.46608933  0.54609901     0.83400
O351        O  0.10377820  0.46614809  0.55599939    -0.81600
O352        O  0.58419797  0.12169792  0.32182184    -0.79100
C353        C  0.67758676  0.07594175  0.34920532     0.82000
O354        O  0.53688125  0.05479972  0.40152288    -0.80200
O355        O  0.65719910  0.06298956  0.44996577    -0.81700
O356        O  0.62070129  0.18334281  0.41741656    -0.81500
O357        O  0.56626068  0.16398739  0.35412472    -0.80100
Zn358      Zn  0.60026288  0.08522174  0.35374078     1.55700
O359        O  0.66368871  0.15099907  0.43391940    -0.81500
Cd360      Cd  0.58400577  0.14915253  0.40182576     1.59700
Cd361      Cd  0.57734440  0.07369256  0.42908075     1.59600
O362        O  0.54945444  0.15098465  0.44150326    -0.81500
O363        O  0.60348358  0.10316500  0.39882261    -1.92000
Cd364      Cd  0.65039723  0.10294042  0.41618295     1.59900
O365        O  0.56038157  0.10321700  0.46896137    -0.81500
O366        O  0.68252153  0.09056927  0.37731637    -0.80100
C367        C  0.53626132  0.04584532  0.37070732     0.82400
C368        C  0.57039273  0.15042765  0.32517544     0.82100
O369        O  0.64771629  0.06983380  0.33818476    -0.79100
C370        C  0.64970857  0.17984995  0.43086852     0.82900
O371        O  0.56141930  0.05076195  0.35113543    -0.79200
C372        C  0.54816897  0.13288796  0.46805730     0.83000
C373        C  0.63940365  0.03659988  0.45519739     0.83400
O374        O  0.60847608  0.03496770  0.44628941    -0.81600
C375        C  0.50647220  0.25132597  0.62517611     0.79600
N376        N  0.50077245  0.28049368  0.60769391    -0.78700
C377        C  0.49985824  0.27999895  0.57331034     0.82100
N378        N  0.50494623  0.25066720  0.55701020    -0.78600
C379        C  0.51072238  0.22170351  0.57361945     0.82200
N380        N  0.51126807  0.22190713  0.60789581    -0.80300
O381        O  0.41617839  0.38366123  0.32161051    -0.79100
C382        C  0.32780540  0.43342771  0.35114485     0.82000
O383        O  0.46853926  0.44856629  0.40357314    -0.80200
O384        O  0.34656089  0.44159792  0.44946798    -0.81700
O385        O  0.38096139  0.32047517  0.41324101    -0.81500
O386        O  0.43909561  0.34316490  0.35311841    -0.80100
Zn387      Zn  0.40365672  0.41999537  0.35532459     1.55700
O388        O  0.33898579  0.35294522  0.43198229    -0.81500
Cd389      Cd  0.41919625  0.35458330  0.40094442     1.59700
Cd390      Cd  0.42778161  0.42906046  0.43077470     1.59600
O391        O  0.45278105  0.35011140  0.44149777    -0.81500
O392        O  0.40070545  0.40087635  0.39975191    -1.92000
Cd393      Cd  0.35336244  0.40127270  0.41574937     1.59900
O394        O  0.44524932  0.39815948  0.46976867    -0.81500
O395        O  0.32200422  0.41461414  0.37638585    -0.80100
C396        C  0.46923588  0.45741302  0.37272249     0.82400
C397        C  0.43280021  0.35637969  0.32441510     0.82100
O398        O  0.35791531  0.44065248  0.34188563    -0.79100
C399        C  0.35196719  0.32389360  0.42679703     0.82900
O400        O  0.44418643  0.45209893  0.35308372    -0.79200
C401        C  0.45608841  0.36793169  0.46814703     0.83000
C402        C  0.36507626  0.46737994  0.45550490     0.83400
O403        O  0.39649464  0.46787627  0.44823220    -0.81600
C404        C  0.62747078  0.50726025  0.25911363     0.79600
N405        N  0.60994037  0.50286614  0.28855024    -0.78700
C406        C  0.57542624  0.50440452  0.28848340     0.82100
N407        N  0.55907909  0.50987413  0.25921171    -0.78600
C408        C  0.57578637  0.51455148  0.23014107     0.82200
N409        N  0.61012789  0.51319547  0.22996052    -0.80300
C410        C  0.50850468  0.75382299  0.87463469     0.79600
N411        N  0.50179457  0.72453947  0.89158032    -0.78700
C412        C  0.49846614  0.72487905  0.92578298     0.82100
N413        N  0.50186339  0.75408257  0.94261301    -0.78600
C414        C  0.50840468  0.78332125  0.92676908     0.82200
N415        N  0.51154529  0.78330608  0.89248402    -0.80300
O416        O  0.38736670  0.52456765  0.08082990    -0.79100
C417        C  0.47350797  0.55646219  0.13683552     0.82000
O418        O  0.32961852  0.60265523  0.14135769    -0.80200
O419        O  0.44890361  0.64894543  0.15116603    -0.81700
O420        O  0.42586291  0.61784708  0.02450082    -0.81500
O421        O  0.36722444  0.55738573  0.04023667    -0.80100
Zn422      Zn  0.39768712  0.55687182  0.11896517     1.55700
O423        O  0.46097414  0.64362317  0.06022955    -0.81500
Cd424      Cd  0.38576651  0.60482653  0.05464344     1.59700
Cd425      Cd  0.37117201  0.63046857  0.12800222     1.59600
O426        O  0.35411433  0.64709920  0.04863516    -0.81500
O427        O  0.40098721  0.60169664  0.10155345    -1.92000
Cd428      Cd  0.44672857  0.62052196  0.10624908     1.59900
O429        O  0.35703670  0.67106408  0.09918477    -0.81500
O430        O  0.47890525  0.58170120  0.11780473    -0.80100
C431        C  0.32821042  0.57183107  0.14990159     0.82400
C432        C  0.37220522  0.52806629  0.05275231     0.82100
O433        O  0.44346704  0.54536411  0.14205474    -0.79100
C434        C  0.45086477  0.63729269  0.03015685     0.82900
O435        O  0.35409089  0.55268689  0.14742547    -0.79200
C436        C  0.34912603  0.67228926  0.06816601     0.83000
C437        C  0.42730927  0.65319564  0.17477434     0.83400
O438        O  0.39628178  0.64586636  0.17070009    -0.81600
C439        C  0.24849996  0.62664431  0.50285275     0.79600
N440        N  0.21899492  0.60908409  0.50731287    -0.78700
C441        C  0.21896889  0.57477102  0.50583691     0.82100
N442        N  0.24818182  0.55846529  0.50016417    -0.78600
C443        C  0.27759315  0.57490611  0.49558130     0.82200
N444        N  0.27789972  0.60929069  0.49714807    -0.80300
O445        O  0.68067953  0.90757934  0.12665334    -0.79100
C446        C  0.64667080  0.81968555  0.07546283     0.82000
O447        O  0.60268481  0.96331500  0.06328932    -0.80200
O448        O  0.54687384  0.84618411  0.06366261    -0.81700
O449        O  0.58602313  0.87118130  0.18619644    -0.81500
O450        O  0.65014605  0.92440758  0.17056643    -0.80100
Zn451      Zn  0.64717963  0.89589521  0.08973059     1.55700
O452        O  0.56378475  0.83274824  0.15150708    -0.81500
Cd453      Cd  0.60129602  0.90985126  0.15506818     1.59700
Cd454      Cd  0.57308222  0.92372767  0.08065661     1.59600
O455        O  0.56193877  0.94440209  0.16110220    -0.81500
O456        O  0.60206394  0.89393724  0.10769159    -1.92000
Cd457      Cd  0.58118000  0.84852371  0.10411193     1.59900
O458        O  0.53433101  0.94013500  0.11213518    -0.81500
O459        O  0.61807336  0.81533317  0.08934788    -0.80100
C460        C  0.63327562  0.96244721  0.05335879     0.82400
C461        C  0.67871359  0.91957954  0.15631500     0.82100
O462        O  0.65978314  0.84897398  0.07183727    -0.79100
C463        C  0.56992259  0.84387749  0.18115732     0.82900
O464        O  0.65145454  0.93609580  0.05716940    -0.79200
C465        C  0.53537428  0.94836604  0.14319888     0.83000
C466        C  0.54380246  0.86599482  0.03850478     0.83400
O467        O  0.55443671  0.89630611  0.03968061    -0.81600
C468        C  0.74810851  0.65906885  0.00687527     0.79600
N469        N  0.77352363  0.67523545  0.98997013    -0.78700
C470        C  0.77508372  0.70951756  0.99006754     0.82100
N471        N  0.75219758  0.72713175  0.00768376    -0.78600
C472        C  0.72744220  0.71175659  0.02508357     0.82200
N473        N  0.72484512  0.67755828  0.02428121    -0.80300
O474        O  0.91828945  0.12228083  0.68343128    -0.79100
C475        C  0.82985791  0.07342291  0.65157025     0.82000
O476        O  0.97299338  0.05521459  0.60714841    -0.80200
O477        O  0.85446874  0.06022857  0.55360537    -0.81700
O478        O  0.88805129  0.18263151  0.59068960    -0.81500
O479        O  0.94502176  0.16006841  0.65152018    -0.80100
Zn480      Zn  0.90628465  0.08497496  0.65108453     1.55700
O481        O  0.84898562  0.14969486  0.56663687    -0.81500
Cd482      Cd  0.92527234  0.14794068  0.60379800     1.59700
Cd483      Cd  0.93331497  0.07253893  0.57760692     1.59600
O484        O  0.95862172  0.15063983  0.56265306    -0.81500
O485        O  0.90553765  0.10214510  0.60594163    -1.92000
Cd486      Cd  0.85969798  0.10158934  0.58640837     1.59900
O487        O  0.95065815  0.10106880  0.53718227    -0.81500
O488        O  0.82579374  0.08930329  0.62403999    -0.80100
C489        C  0.97230863  0.04700190  0.63814588     0.82400
C490        C  0.93660355  0.14845450  0.68036956     0.82100
O491        O  0.85914039  0.06743335  0.66382334    -0.79100
C492        C  0.86155240  0.17886721  0.57277470     0.82900
O493        O  0.94630468  0.05228422  0.65649409    -0.79200
C494        C  0.96119965  0.13143930  0.53688940     0.83000
C495        C  0.87236079  0.03355018  0.55117079     0.83400
O496        O  0.90294639  0.03274937  0.56126904    -0.81600
C497        C  0.66961796  0.99865128  0.75053413     0.79600
N498        N  0.68779312  0.01484186  0.72623951    -0.78700
C499        C  0.72216979  0.01449420  0.72720755     0.82100
N500        N  0.73813596  0.99784189  0.75205492    -0.78600
C501        C  0.72076612  0.98143128  0.77612837     0.82200
N502        N  0.68629754  0.98214399  0.77577715    -0.80300
O503        O  0.88537849  0.96845778  0.92694665    -0.79100
C504        C  0.97245010  0.94087865  0.86971764     0.82000
O505        O  0.83075509  0.89161642  0.85795608    -0.80200
O506        O  0.95119632  0.84480860  0.85696302    -0.81700
O507        O  0.92735871  0.87901069  0.98206969    -0.81500
O508        O  0.86250000  0.93396186  0.96473770    -0.80100
Zn509      Zn  0.89681874  0.93761130  0.88794130     1.55700
O510        O  0.96390457  0.85594426  0.94638626    -0.81500
Cd511      Cd  0.88566202  0.88789806  0.95130409     1.59700
Cd512      Cd  0.87109017  0.86356182  0.87562119     1.59600
O513        O  0.85697519  0.84311944  0.95613287    -0.81500
O514        O  0.90037292  0.89213065  0.90402251    -1.92000
Cd515      Cd  0.94719243  0.87545144  0.90000540     1.59900
O516        O  0.85384653  0.82330636  0.90364731    -0.81500
O517        O  0.97842107  0.91483105  0.88733340    -0.80100
C518        C  0.82937272  0.92299660  0.85155050     0.82400
C519        C  0.86780590  0.96375806  0.95345081     0.82100
O520        O  0.94212851  0.95131142  0.86546113    -0.79100
C521        C  0.95462191  0.86284816  0.97647751     0.82900
O522        O  0.85434602  0.94244384  0.85810606    -0.79200
C523        C  0.84929521  0.81975461  0.93517659     0.83000
C524        C  0.93048237  0.83948333  0.83275776     0.83400
O525        O  0.89918250  0.84633420  0.83542127    -0.81600
O526        O  0.08980620  0.61558068  0.82218987    -0.79100
C527        C  0.18307412  0.56889661  0.85322663     0.82000
O528        O  0.03871393  0.55016206  0.89883286    -0.80200
O529        O  0.15670611  0.55697891  0.95339176    -0.81700
O530        O  0.12422628  0.67694842  0.91641117    -0.81500
O531        O  0.07006017  0.65743021  0.85396271    -0.80100
Zn532      Zn  0.10555688  0.57963184  0.85480584     1.55700
O533        O  0.16524741  0.64462576  0.93757486    -0.81500
Cd534      Cd  0.08738812  0.64353638  0.90173963     1.59700
Cd535      Cd  0.07711256  0.56984830  0.92951878     1.59600
O536        O  0.05339657  0.64879801  0.94146703    -0.81500
O537        O  0.10635029  0.59747360  0.90011364    -1.92000
Cd538      Cd  0.15277875  0.59657102  0.91907754     1.59900
O539        O  0.05884562  0.60045463  0.96914979    -0.81500
O540        O  0.18711494  0.58277203  0.88190189    -0.80100
C541        C  0.04099767  0.53961677  0.86849851     0.82400
C542        C  0.07486874  0.64378000  0.82520161     0.82100
O543        O  0.15362465  0.56448785  0.84049445    -0.79100
C544        C  0.15186879  0.67343620  0.93229001     0.82900
O545        O  0.06766532  0.54452855  0.85097442    -0.79200
C546        C  0.04932717  0.63117952  0.96802288     0.83000
C547        C  0.13773196  0.53125995  0.95755586     0.83400
O548        O  0.10696616  0.53084254  0.94797197    -0.81600
C549        C  0.00187362  0.74745386  0.66680453     0.79600
N550        N  0.01900352  0.72267360  0.68366811    -0.78700
C551        C  0.01847793  0.72177110  0.71800728     0.82100
N552        N  0.00032352  0.74480234  0.73496735    -0.78600
C553        C  0.98316085  0.76916365  0.71898421     0.82200
N554        N  0.98430011  0.77103935  0.68475140    -0.80300
C555        C  0.88097548  0.49512502  0.75156133     0.79600
N556        N  0.89957237  0.49897205  0.78053221    -0.78700
C557        C  0.93412732  0.49923568  0.77912428     0.82100
N558        N  0.94934057  0.49505517  0.74909431    -0.78600
C559        C  0.93170133  0.49083629  0.72041884     0.82200
N560        N  0.89735255  0.49116200  0.72154079    -0.80300
C561        C  0.34246420  0.49953956  0.74672715     0.79600
N562        N  0.32553872  0.51734540  0.77106284    -0.78700
C563        C  0.29104307  0.51841162  0.77089520     0.82100
N564        N  0.27391759  0.50081992  0.74747858    -0.78600
C565        C  0.28973627  0.48232028  0.72389485     0.82200
N566        N  0.32426019  0.48202632  0.72300099    -0.80300
C567        C  0.75483127  0.87674899  0.50119361     0.79600
N568        N  0.78498402  0.89312623  0.50635464    -0.78700
C569        C  0.78615406  0.92748226  0.50653136     0.82100
N570        N  0.75750861  0.94489547  0.50154575    -0.78600
C571        C  0.72754983  0.92966561  0.49623160     0.82200
N572        N  0.72605244  0.89528054  0.49619943    -0.80300
C573        C  0.00262201  0.24649968  0.37705704     0.79600
N574        N  0.00639202  0.27595815  0.39450778    -0.78700
C575        C  0.00693209  0.27587487  0.42878485     0.82100
N576        N  0.00292903  0.24640406  0.44523163    -0.78600
C577        C  0.99868371  0.21703743  0.42864069     0.82200
N578        N  0.99881989  0.21696723  0.39431768    -0.80300
C579        C  0.00398854  0.25290354  0.83994670     0.79600
N580        N  0.99101894  0.22564163  0.82316124    -0.78700
C581        C  0.99035008  0.22523882  0.78890507     0.82100
N582        N  0.00266899  0.25164919  0.77174655    -0.78600
C583        C  0.01562645  0.27876321  0.78746040     0.82200
N584        N  0.01644270  0.27961161  0.82186585    -0.80300
C585        C  0.50127664  0.74075612  0.34106695     0.79600
N586        N  0.51906264  0.76380726  0.32256095    -0.78700
C587        C  0.51965785  0.76135662  0.28833567     0.82100
N588        N  0.50174570  0.73692867  0.27303621    -0.78600
C589        C  0.48367792  0.71435309  0.29060536     0.82200
N590        N  0.48354590  0.71587510  0.32487105    -0.80300
C591        C  0.83960201  0.99905788  0.25273153     0.79600
N592        N  0.82104178  0.01865838  0.27423190    -0.78700
C593        C  0.78658122  0.01775670  0.27312757     0.82100
N594        N  0.77119207  0.99689057  0.25117566    -0.78600
C595        C  0.78871083  0.97712621  0.22997839     0.82200
N596        N  0.82318894  0.97830798  0.23044112    -0.80300
C597        C  0.25352823  0.83581635  0.99765828     0.79600
N598        N  0.28039195  0.81875062  0.01102886    -0.78700
C599        C  0.28127714  0.78445563  0.00941806     0.82100
N600        N  0.25572385  0.76768349  0.99461340    -0.78600
C601        C  0.22898813  0.78392723  0.98159373     0.82200
N602        N  0.22758226  0.81813868  0.98321888    -0.80300
C603        C  0.75631527  0.33813016  0.50180522     0.79600
N604        N  0.78220682  0.32060781  0.51667967    -0.78700
C605        C  0.78205381  0.28617005  0.51614683     0.82100
N606        N  0.75684486  0.26995331  0.50006875    -0.78600
C607        C  0.73152014  0.28647942  0.48480575     0.82200
N608        N  0.73090962  0.32076540  0.48591955    -0.80300
C609        C  0.16629275  0.50489922  0.25149105     0.79600
N610        N  0.18530793  0.49239639  0.27746791    -0.78700
C611        C  0.21974804  0.49353039  0.27582291     0.82100
N612        N  0.23469994  0.50701613  0.24861966    -0.78600
C613        C  0.21662846  0.51950491  0.22289378     0.82200
N614        N  0.18222997  0.51831676  0.22403050    -0.80300
C615        C  0.25528362  0.37344655  0.99823766     0.79600
N616        N  0.28469394  0.39113208  0.00262949    -0.78700
C617        C  0.28414128  0.42545046  0.00336669     0.82100
N618        N  0.25439580  0.44150379  0.99999932    -0.78600
C619        C  0.22518910  0.42472595  0.99522435     0.82200
N620        N  0.22550559  0.39044732  0.99460772    -0.80300
C621        C  0.37663971  0.99486852  0.25915173     0.79600
N622        N  0.39455068  0.98937740  0.23019742    -0.78700
C623        C  0.42900794  0.98879053  0.23106860     0.82100
N624        N  0.44509513  0.99340458  0.26064096    -0.78600
C625        C  0.42807150  0.99895757  0.28942671     0.82200
N626        N  0.39365335  0.99988231  0.28877921    -0.80300
C627        C  0.50124004  0.25359925  0.16394144     0.79600
N628        N  0.51609222  0.22791117  0.18158773    -0.78700
C629        C  0.51706873  0.22889175  0.21596029     0.82100
N630        N  0.50343866  0.25533280  0.23215789    -0.78600
C631        C  0.48865985  0.28083270  0.21551202     0.82200
N632        N  0.48759666  0.28019939  0.18118928    -0.80300
C633        C  0.25057923  0.16281750  0.50041616     0.79600
N634        N  0.22674823  0.17990078  0.51849670    -0.78700
C635        C  0.22740479  0.21414082  0.51961382     0.82100
N636        N  0.25093896  0.23104736  0.50197228    -0.78600
C637        C  0.27438320  0.21499939  0.48345304     0.82200
N638        N  0.27448391  0.18057547  0.48279433    -0.80300
C639        C  0.01423809  0.74942260  0.12985423     0.79600
N640        N  0.01761201  0.72053533  0.11110842    -0.78700
C641        C  0.01804217  0.72208196  0.07670756     0.82100
N642        N  0.01440345  0.75237298  0.06179207    -0.78600
C643        C  0.01032306  0.78103717  0.07950873     0.82200
N644        N  0.01041442  0.77959045  0.11376790    -0.80300
C645        C  0.74838812  0.12031189  0.00309842     0.79600
N646        N  0.77805983  0.10328245  0.99784298    -0.78700
C647        C  0.77824842  0.06886953  0.99704850     0.82100
N648        N  0.74913818  0.05204289  0.00175934    -0.78600
C649        C  0.71955728  0.06791774  0.00660329     0.82200
N650        N  0.71905426  0.10233348  0.00747440    -0.80300
C651        C  0.07707118  0.98398740  0.77875236     0.79600
N652        N  0.11153351  0.98332543  0.77948199    -0.78700
C653        C  0.12964483  0.98898439  0.75067963     0.82100
N654        N  0.11280773  0.99569860  0.72125871    -0.78600
C655        C  0.07831830  0.99648449  0.72087379     0.82200
N656        N  0.06125460  0.99070780  0.74954408    -0.80300
C657        C  0.16896718  0.70412021  0.94427061    -0.06700
C658        C  0.19567744  0.71669820  0.92507960    -0.17800
C659        C  0.21277132  0.74598225  0.93459186     0.10500
C660        C  0.20358677  0.76302196  0.96433314    -0.06600
C661        C  0.17567542  0.75144331  0.98271011    -0.17900
C662        C  0.15806184  0.72230522  0.97287063     0.10500
S663        S  0.24775361  0.75930355  0.90892152    -0.32800
S664        S  0.12294194  0.70912990  0.99864441    -0.32800
H665        H  0.12295374  0.67497524  0.98968888     0.28500
H666        H  0.24654050  0.79333977  0.91841609     0.28500
H667        H  0.20346431  0.70344636  0.90261159     0.19100
H668        H  0.16901287  0.76378756  0.00604027     0.19100
C669        C  0.19446625  0.44542851  0.99011730    -0.06700
C670        C  0.19021625  0.47312585  0.01175936    -0.17800
C671        C  0.16987936  0.50048412  0.00296930     0.10500
C672        C  0.15284258  0.50038910  0.97186489    -0.06600
C673        C  0.15479135  0.47161479  0.95138956    -0.17900
C674        C  0.17544277  0.44428369  0.96008326     0.10500
S675        S  0.16830536  0.53560831  0.03160787    -0.32800
S676        S  0.18023285  0.41111629  0.92970683    -0.32800
H677        H  0.17618760  0.38533515  0.95347050     0.28500
H678        H  0.13635008  0.54708676  0.02152670     0.28500
H679        H  0.20479510  0.47452900  0.03478573     0.19100
H680        H  0.14210478  0.47145314  0.92724664     0.19100
C681        C  0.03504370  0.64813188  0.99854462    -0.06700
C682        C  0.05061557  0.64374669  0.03017862    -0.17800
C683        C  0.04339610  0.66518894  0.05768514     0.10500
C684        C  0.02049698  0.69214909  0.05362668    -0.06600
C685        C  0.00290645  0.69429027  0.02287766    -0.17900
C686        C  0.00966577  0.67283265  0.99578491     0.10500
S687        S  0.06640834  0.65882597  0.09607693    -0.32800
S688        S  0.98554479  0.67916188  0.95787348    -0.32800
H689        H  0.98634401  0.64529718  0.94769007     0.28500
H690        H  0.03730117  0.65942825  0.11622195     0.28500
H691        H  0.06999373  0.62486300  0.03296593     0.19100
H692        H  0.98445727  0.71397475  0.01929618     0.19100
C693        C  0.27035766  0.53800918  0.79513945    -0.06700
C694        C  0.26558937  0.52546146  0.82777902    -0.17800
C695        C  0.23757150  0.53515879  0.84733886     0.10500
C696        C  0.21356252  0.55803156  0.83416212    -0.06600
C697        C  0.21925547  0.57165072  0.80219741    -0.17900
C698        C  0.24733237  0.56226073  0.78291298     0.10500
S699        S  0.23249900  0.51536378  0.88777707    -0.32800
S700        S  0.25165080  0.58095268  0.74187452    -0.32800
H701        H  0.28672500  0.57636765  0.73943943     0.28500
H702        H  0.19705134  0.51466350  0.88743503     0.28500
H703        H  0.28225583  0.50604835  0.83709161     0.19100
H704        H  0.20157395  0.58971590  0.79205929     0.19100
C705        C  0.01126204  0.52338108  0.85200146    -0.06700
C706        C  0.97939475  0.53878373  0.85467854    -0.17800
C707        C  0.95256225  0.53012069  0.83296725     0.10500
C708        C  0.95699516  0.50452236  0.80867715    -0.06600
C709        C  0.98791413  0.48704111  0.80850489    -0.17900
C710        C  0.01482808  0.49615096  0.82951457     0.10500
S711        S  0.91487139  0.55508939  0.83511288    -0.32800
S712        S  0.05345593  0.47261646  0.82558327    -0.32800
H713        H  0.06382659  0.47728325  0.85908516     0.28500
H714        H  0.91352197  0.56116565  0.80033020     0.28500
H715        H  0.97622377  0.55977111  0.87175663     0.19100
H716        H  0.99181935  0.46694945  0.79050162     0.19100
C717        C  0.03986499  0.69923635  0.73862393    -0.06700
C718        C  0.03132347  0.66510788  0.74187599    -0.17800
C719        C  0.04284181  0.64606609  0.76946347     0.10500
C720        C  0.06325625  0.66148391  0.79445913    -0.06600
C721        C  0.07309740  0.69500564  0.79010115    -0.17900
C722        C  0.06218712  0.71369032  0.76241964     0.10500
S723        S  0.02834486  0.60316102  0.77271037    -0.32800
S724        S  0.07619256  0.75681206  0.75977383    -0.32800
H725        H  0.07261249  0.75955254  0.72471682     0.28500
H726        H  0.02517585  0.60299467  0.80790005     0.28500
H727        H  0.01360283  0.65395224  0.72437220     0.19100
H728        H  0.08931732  0.70686256  0.80857671     0.19100
C729        C  0.00181082  0.95704204  0.85208910    -0.06700
C730        C  0.03280429  0.93946597  0.85107359    -0.17800
C731        C  0.05900739  0.94872453  0.82919218     0.10500
C732        C  0.05511718  0.97702193  0.80828640    -0.06600
C733        C  0.02555513  0.99632369  0.81152796    -0.17900
C734        C  0.99923291  0.98697362  0.83309049     0.10500
S735        S  0.09503835  0.92137449  0.82671668    -0.32800
S736        S  0.96298473  0.01413734  0.83424850    -0.32800
H737        H  0.95950634  0.01228942  0.86938155     0.28500
H738        H  0.09483417  0.91945667  0.79142309     0.28500
H739        H  0.03593698  0.91668810  0.86558634     0.19100
H740        H  0.02232881  0.01844302  0.79600551     0.19100
C741        C  0.85122757  0.99389523  0.96930781    -0.06700
C742        C  0.84843535  0.02373321  0.95021339    -0.17800
C743        C  0.82696161  0.05017668  0.95980043     0.10500
C744        C  0.80853772  0.04789637  0.99000414    -0.06600
C745        C  0.81372653  0.01959732  0.01057738    -0.17900
C746        C  0.83481916  0.99298576  0.00089889     0.10500
S747        S  0.82144578  0.08429878  0.93064319    -0.32800
S748        S  0.83882851  0.95849762  0.02989737    -0.32800
H749        H  0.87357251  0.95423048  0.02419645     0.28500
H750        H  0.78603769  0.08446229  0.93255667     0.28500
H751        H  0.86097183  0.02556364  0.92612671     0.19100
H752        H  0.79982581  0.01744529  0.03391513     0.19100
C753        C  0.97438461  0.85002566  0.00607252    -0.06700
C754        C  0.95853671  0.84856161  0.03781064    -0.17800
C755        C  0.97253340  0.83038039  0.06469761     0.10500
C756        C  0.00247816  0.81191886  0.05979342    -0.06600
C757        C  0.02028810  0.81674278  0.02960035    -0.17900
C758        C  0.00715525  0.83616844  0.00325553     0.10500
S759        S  0.94919282  0.82882640  0.10337678    -0.32800
S760        S  0.03337623  0.84150176  0.96670058    -0.32800
H761        H  0.02350417  0.87499972  0.96115410     0.28500
H762        H  0.97783613  0.83441682  0.12354411     0.28500
H763        H  0.93413825  0.86011600  0.04137026     0.19100
H764        H  0.04388064  0.80365469  0.02576070     0.19100
C765        C  0.96537612  0.79361135  0.74047621    -0.06700
C766        C  0.98505746  0.81826081  0.75648161    -0.17800
C767        C  0.97396666  0.83444350  0.78579851     0.10500
C768        C  0.94272159  0.82518397  0.80037330    -0.06600
C769        C  0.92224547  0.80186552  0.78323133    -0.17900
C770        C  0.93322860  0.78602451  0.75368973     0.10500
S771        S  0.00094536  0.86658625  0.80322291    -0.32800
S772        S  0.90634800  0.75414473  0.73563334    -0.32800
H773        H  0.91923907  0.75665014  0.70285793     0.28500
H774        H  0.97438014  0.88785390  0.81289571     0.28500
H775        H  0.01008894  0.82373505  0.74700217     0.19100
H776        H  0.89798708  0.79488265  0.79363927     0.19100
C777        C  0.79786983  0.93692752  0.83625389    -0.06700
C778        C  0.77950024  0.91706988  0.81329695    -0.17800
C779        C  0.75128755  0.92980484  0.79613187     0.10500
C780        C  0.74084300  0.96326116  0.80168607    -0.06600
C781        C  0.75793110  0.98248276  0.82595564    -0.17900
C782        C  0.78565108  0.96956136  0.84371870     0.10500
S783        S  0.73149783  0.90319963  0.76512661    -0.32800
S784        S  0.80404380  0.99603610  0.87565860    -0.32800
H785        H  0.81032603  0.96960928  0.89825157     0.28500
H786        H  0.69926208  0.91745911  0.76808994     0.28500
H787        H  0.78794234  0.89182246  0.80762806     0.19100
H788        H  0.75045817  0.00833189  0.83013975     0.19100
C789        C  0.94959022  0.16465291  0.71135474    -0.06700
C790        C  0.98452494  0.16614560  0.71625510    -0.17800
C791        C  0.99833136  0.18154289  0.74477423     0.10500
C792        C  0.97702087  0.19705152  0.76861419    -0.06600
C793        C  0.94195187  0.19386035  0.76479451    -0.17900
C794        C  0.92801480  0.17736503  0.73659052     0.10500
S795        S  0.04365403  0.18251416  0.74852488    -0.32800
S796        S  0.88281175  0.17534151  0.73144003    -0.32800
H797        H  0.87453728  0.18889132  0.76302930     0.28500
H798        H  0.04429545  0.18680890  0.78361611     0.28500
H799        H  0.00122245  0.15535893  0.69761815     0.19100
H800        H  0.92557568  0.20651994  0.78247442     0.19100
C801        C  0.99268355  0.18653328  0.44938928    -0.06700
C802        C  0.01600969  0.17958290  0.47516139    -0.17800
C803        C  0.00747757  0.15918056  0.50266164     0.10500
C804        C  0.97461469  0.14580085  0.50514328    -0.06600
C805        C  0.95220191  0.15040283  0.47814727    -0.17900
C806        C  0.96086484  0.17048194  0.45040366     0.10500
S807        S  0.03913816  0.15208537  0.53438693    -0.32800
S808        S  0.92873813  0.17832668  0.41944176    -0.32800
H809        H  0.95058957  0.17423868  0.39198429     0.28500
H810        H  0.02601204  0.12121340  0.54561674     0.28500
H811        H  0.04048302  0.19173685  0.47483213     0.19100
H812        H  0.92698022  0.14002812  0.47964358     0.19100
C813        C  0.05762323  0.00495658  0.69090690    -0.06700
C814        C  0.05969688  0.03752843  0.67755304    -0.17800
C815        C  0.03264003  0.05149059  0.65937143     0.10500
C816        C  0.00293089  0.03234983  0.65382203    -0.06600
C817        C  0.00190254  0.99906204  0.66508758    -0.17900
C818        C  0.02890818  0.98511735  0.68303155     0.10500
S819        S  0.03647344  0.09479473  0.64649340    -0.32800
S820        S  0.02440585  0.94225880  0.69714746    -0.32800
H821        H  0.05915377  0.93603369  0.70049401     0.28500
H822        H  0.00242605  0.10333294  0.65118041     0.28500
H823        H  0.08107152  0.05332250  0.68400651     0.19100
H824        H  0.97952057  0.98400507  0.66054981     0.19100
C825        C  0.84570836  0.20921182  0.55754572    -0.06700
C826        C  0.83771143  0.23734203  0.57760145    -0.17800
C827        C  0.81909425  0.26463470  0.56455265     0.10500
C828        C  0.80914452  0.26443588  0.53038826    -0.06600
C829        C  0.81995040  0.23761278  0.50998385    -0.17900
C830        C  0.83797327  0.21039129  0.52296409     0.10500
S831        S  0.80700025  0.29756302  0.59316112    -0.32800
S832        S  0.85032657  0.17784494  0.49390730    -0.32800
H833        H  0.88097310  0.17046547  0.51006689     0.28500
H834        H  0.77406107  0.30112764  0.58061820     0.28500
H835        H  0.84426498  0.23718220  0.60403804     0.19100
H836        H  0.81304712  0.23717414  0.48362795     0.19100
C837        C  0.85646786  0.00246818  0.53745666    -0.06700
C838        C  0.84293071  0.00311011  0.50495484    -0.17800
C839        C  0.82408750  0.97600608  0.49231951     0.10500
C840        C  0.81714242  0.94775879  0.51289676    -0.06600
C841        C  0.83290454  0.94590206  0.54445296    -0.17900
C842        C  0.85235443  0.97290852  0.55694899     0.10500
S843        S  0.80773397  0.97972504  0.45015583    -0.32800
S844        S  0.86850105  0.96935488  0.59917317    -0.32800
H845        H  0.86234330  0.00291247  0.60840599     0.28500
H846        H  0.80395835  0.94497290  0.44468292     0.28500
H847        H  0.84643475  0.02524634  0.48950533     0.19100
H848        H  0.82744126  0.92480544  0.56076413     0.19100
C849        C  0.79946951  0.06120851  0.66924681    -0.06700
C850        C  0.78233623  0.03315299  0.65616899    -0.17800
C851        C  0.75460559  0.01903856  0.67294725     0.10500
C852        C  0.74336117  0.03346683  0.70336438    -0.06600
C853        C  0.75971045  0.06234555  0.71565179    -0.17900
C854        C  0.78739680  0.07647059  0.69890551     0.10500
S855        S  0.73671668  0.98092240  0.65595648    -0.32800
S856        S  0.80699517  0.11301346  0.71749596    -0.32800
H857        H  0.82016679  0.12644581  0.68762760     0.28500
H858        H  0.70426626  0.98549630  0.66924453     0.28500
H859        H  0.79140751  0.02139982  0.63329989     0.19100
H860        H  0.75183636  0.07305006  0.73946011     0.19100
C861        C  0.80009963  0.72930962  0.97092001    -0.06700
C862        C  0.82795718  0.74245199  0.98843304    -0.17800
C863        C  0.84550244  0.77087403  0.97670675     0.10500
C864        C  0.83434802  0.78750998  0.94727591    -0.06600
C865        C  0.80786283  0.77298165  0.92871013    -0.17900
C866        C  0.79072697  0.74432986  0.94017843     0.10500
S867        S  0.88171782  0.78466897  0.00051718    -0.32800
S868        S  0.75478639  0.73009820  0.91620989    -0.32800
H869        H  0.75592681  0.69660209  0.92730140     0.28500
H870        H  0.90029436  0.79568142  0.97251054     0.28500
H871        H  0.83499580  0.73157365  0.01238568     0.19100
H872        H  0.79934620  0.78495233  0.90578455     0.19100
C873        C  0.45043119  0.98310619  0.20100866    -0.06700
C874        C  0.44842412  0.95225998  0.18396740    -0.17800
C875        C  0.47510301  0.94098410  0.16355446     0.10500
C876        C  0.50447233  0.96109055  0.15984247    -0.06600
C877        C  0.50538665  0.99282936  0.17507637    -0.17900
C878        C  0.47858595  0.00422695  0.19494959     0.10500
S879        S  0.47096173  0.89960776  0.14522393    -0.32800
S880        S  0.48238099  0.04562659  0.21319855    -0.32800
H881        H  0.44751889  0.05104663  0.21673296     0.28500
H882        H  0.50528629  0.89102332  0.14558138     0.28500
H883        H  0.42731267  0.93564142  0.18875566     0.19100
H884        H  0.52746601  0.00860150  0.17203944     0.19100
C885        C  0.71061447  0.92880374  0.17402615    -0.06700
C886        C  0.73489412  0.94820802  0.15696617    -0.17800
C887        C  0.76349930  0.96114685  0.17358283     0.10500
C888        C  0.76839612  0.95449579  0.20809341    -0.06600
C889        C  0.74542802  0.93294640  0.22435509    -0.17900
C890        C  0.71698985  0.91987971  0.20777973     0.10500
S891        S  0.79061425  0.98912844  0.15050057    -0.32800
S892        S  0.68949745  0.89253599  0.23133973    -0.32800
H893        H  0.67943361  0.87283112  0.20370109     0.28500
H894        H  0.82046856  0.97831913  0.16607929     0.28500
H895        H  0.73064772  0.95487276  0.13092820     0.19100
H896        H  0.74861575  0.92783742  0.25090662     0.19100
C897        C  0.64871285  0.99286374  0.03774644    -0.06700
C898        C  0.66630315  0.98921320  0.00748533    -0.17800
C899        C  0.68574383  0.01553060  0.99429388     0.10500
C900        C  0.68952512  0.04606144  0.01249898    -0.06600
C901        C  0.67004636  0.05062925  0.04156239    -0.17900
C902        C  0.64934590  0.02462564  0.05400166     0.10500
S903        S  0.70645017  0.00794982  0.95462555    -0.32800
S904        S  0.62766778  0.03199559  0.09298064    -0.32800
H905        H  0.59587272  0.02370668  0.07960663     0.28500
H906        H  0.70879516  0.04200627  0.94543534     0.28500
H907        H  0.66544568  0.96537552  0.99430403     0.19100
H908        H  0.67279495  0.07356711  0.05600544     0.19100
C909        C  0.53929086  0.78402308  0.26625883    -0.06700
C910        C  0.53178623  0.81843841  0.26569204    -0.17800
C911        C  0.54135203  0.83866188  0.23831781     0.10500
C912        C  0.55888478  0.82419613  0.21080874    -0.06600
C913        C  0.56776293  0.79020852  0.21232141    -0.17900
C914        C  0.55879935  0.77028061  0.23981673     0.10500
S915        S  0.52822429  0.88203934  0.23903320    -0.32800
S916        S  0.57248078  0.72703608  0.23936925    -0.32800
H917        H  0.57195822  0.72275199  0.27444617     0.28500
H918        H  0.52330817  0.88496802  0.20423193     0.28500
H919        H  0.51630041  0.82910042  0.28540831     0.19100
H920        H  0.58213798  0.77911178  0.19200306     0.19100
C921        C  0.70481680  0.73361848  0.04479597    -0.06700
C922        C  0.67051098  0.73517695  0.03639279    -0.17800
C923        C  0.65078168  0.76290518  0.04596982     0.10500
C924        C  0.66566959  0.78963323  0.06446289    -0.06600
C925        C  0.69941712  0.78693741  0.07441258    -0.17900
C926        C  0.71883166  0.75912943  0.06536854     0.10500
S927        S  0.60766507  0.76384145  0.03148619    -0.32800
S928        S  0.76189591  0.75806712  0.08010137    -0.32800
H929        H  0.76515778  0.72288815  0.07877680     0.28500
H930        H  0.60666872  0.79871407  0.02583925     0.28500
H931        H  0.65970744  0.71610712  0.02015080     0.19100
H932        H  0.71074042  0.80659684  0.08957971     0.19100
C933        C  0.29559425  0.55861786  0.16322398    -0.06700
C934        C  0.27437744  0.58068695  0.18100590    -0.17800
C935        C  0.24491862  0.56928233  0.19682961     0.10500
C936        C  0.23616623  0.53492966  0.19534495    -0.06600
C937        C  0.25588913  0.51335359  0.17550707    -0.17900
C938        C  0.28491842  0.52488047  0.15889951     0.10500
S939        S  0.22153920  0.59901066  0.22174126    -0.32800
S940        S  0.30710891  0.49521826  0.13279447    -0.32800
H941        H  0.31501810  0.51870920  0.10759833     0.28500
H942        H  0.19013274  0.58321529  0.21721687     0.28500
H943        H  0.28152533  0.60681204  0.18395268     0.19100
H944        H  0.24967870  0.48684096  0.17448887     0.19100
C945        C  0.35758667  0.49776532  0.03534604    -0.06700
C946        C  0.33870020  0.50299000  0.00593510    -0.17800
C947        C  0.31794798  0.47790184  0.99246967     0.10500
C948        C  0.31452810  0.44668480  0.00916931    -0.06600
C949        C  0.33604600  0.43986076  0.03627181    -0.17900
C950        C  0.35814137  0.46461588  0.04895549     0.10500
S951        S  0.29512666  0.48800725  0.95455132    -0.32800
S952        S  0.38539342  0.45215666  0.08295289    -0.32800
H953        H  0.41391462  0.46843046  0.06955853     0.28500
H954        H  0.29204234  0.45459873  0.94329801     0.28500
H955        H  0.33887444  0.52738675  0.99384849     0.19100
H956        H  0.33436362  0.41575472  0.04884933     0.19100
C957        C  0.30737286  0.76365571  0.02576100    -0.06700
C958        C  0.30284188  0.75645581  0.05990359    -0.17800
C959        C  0.31562930  0.72688468  0.07423964     0.10500
C960        C  0.33466019  0.70410303  0.05438831    -0.06600
C961        C  0.34102766  0.71259615  0.02067457    -0.17900
C962        C  0.32760093  0.74187456  0.00628537     0.10500
S963        S  0.30332196  0.71818849  0.11693535    -0.32800
S964        S  0.33541715  0.74918711  0.96225882    -0.32800
H965        H  0.32864157  0.78386267  0.96301758     0.28500
H966        H  0.29496438  0.68436330  0.11059031     0.28500
H967        H  0.28623609  0.77216792  0.07468860     0.19100
H968        H  0.35615517  0.69608840  0.00520641     0.19100
C969        C  0.46440908  0.68965077  0.27054884    -0.06700
C970        C  0.43251762  0.69965487  0.25902513    -0.17800
C971        C  0.41958783  0.68811101  0.22818704     0.10500
C972        C  0.43880108  0.66566256  0.20823438    -0.06600
C973        C  0.46941109  0.65356304  0.22124933    -0.17900
C974        C  0.48209112  0.66498269  0.25215464     0.10500
S975        S  0.38014880  0.70579271  0.21430774    -0.32800
S976        S  0.52240431  0.64916374  0.26579009    -0.32800
H977        H  0.51818843  0.65753923  0.29987359     0.28500
H978        H  0.39028480  0.71001805  0.18071631     0.28500
H979        H  0.41915346  0.71930927  0.27235963     0.19100
H980        H  0.48386705  0.63536965  0.20701041     0.19100
C981        C  0.51232314  0.81360367  0.94878744    -0.06700
C982        C  0.49036593  0.81611868  0.97656031    -0.17800
C983        C  0.49858582  0.83527005  0.00508567     0.10500
C984        C  0.52965855  0.85252627  0.00645449    -0.06600
C985        C  0.55000569  0.85293881  0.97747721    -0.17900
C986        C  0.54159246  0.83393178  0.94872345     0.10500
S987        S  0.46903434  0.83557521  0.03948378    -0.32800
S988        S  0.57110857  0.83346615  0.91449523    -0.32800
H989        H  0.54607004  0.83779005  0.88983303     0.28500
H990        H  0.47891747  0.86701007  0.05243803     0.28500
H991        H  0.46747995  0.80113952  0.97698871     0.19100
H992        H  0.57381144  0.86638560  0.97802028     0.19100
C993        C  0.48864809  0.69524713  0.94607259    -0.06700
C994        C  0.51104551  0.68457819  0.97138403    -0.17800
C995        C  0.50015131  0.66448959  0.99848013     0.10500
C996        C  0.46593746  0.65476683  0.00048895    -0.06600
C997        C  0.44417587  0.66365231  0.97390792    -0.17900
C998        C  0.45484743  0.68421450  0.94738564     0.10500
S999        S  0.53004032  0.65163189  0.03019733    -0.32800
S1000       S  0.42325149  0.69794498  0.91781215    -0.32800
H1001       H  0.43438198  0.73142993  0.91563066     0.28500
H1002       H  0.55880921  0.66578653  0.01511678     0.28500
H1003       H  0.53680264  0.69370063  0.97086267     0.19100
H1004       H  0.41778746  0.65652129  0.97494804     0.19100
C1005       C  0.55535920  0.52270165  0.20010982    -0.06700
C1006       C  0.52981672  0.49999795  0.19061560    -0.17800
C1007       C  0.50412891  0.50915006  0.16811487     0.10500
C1008       C  0.50313417  0.54223068  0.15522390    -0.06600
C1009       C  0.53012020  0.56413203  0.16304118    -0.17900
C1010       C  0.55571243  0.55498727  0.18557697     0.10500
S1011       S  0.47348946  0.47749732  0.15706998    -0.32800
S1012       S  0.58610160  0.58676612  0.19718597    -0.32800
H1013       H  0.58604519  0.57944977  0.23173724     0.28500
H1014       H  0.46940152  0.48860497  0.12376500     0.28500
H1015       H  0.52924259  0.47516491  0.20177470     0.19100
H1016       H  0.53007274  0.58963324  0.15350534     0.19100
C1017       C  0.34900090  0.49801068  0.46997655    -0.06700
C1018       C  0.34793714  0.52766712  0.45068425    -0.17800
C1019       C  0.32759945  0.55519733  0.46006738     0.10500
C1020       C  0.30791804  0.55343742  0.48963324    -0.06600
C1021       C  0.31110063  0.52464418  0.50998894    -0.17900
C1022       C  0.33106865  0.49715883  0.50053564     0.10500
S1023       S  0.32447474  0.58983742  0.43125558    -0.32800
S1024       S  0.33120080  0.46100802  0.52779663    -0.32800
H1025       H  0.36354386  0.44974324  0.51882277     0.28500
H1026       H  0.32735531  0.61447563  0.45643782     0.28500
H1027       H  0.36136935  0.52859496  0.42700408     0.19100
H1028       H  0.29608005  0.52262339  0.53264436     0.19100
C1029       C  0.50018661  0.47291492  0.35833325    -0.06700
C1030       C  0.49732781  0.50399318  0.34215139    -0.17800
C1031       C  0.52391525  0.51723240  0.32312875     0.10500
C1032       C  0.55399010  0.49847939  0.31866430    -0.06600
C1033       C  0.55809480  0.46885771  0.33735757    -0.17900
C1034       C  0.53153316  0.45584148  0.35699991     0.10500
S1035       S  0.51717836  0.55761363  0.30362473    -0.32800
S1036       S  0.53818385  0.41576929  0.37701329    -0.32800
H1037       H  0.50588382  0.40277104  0.37020787     0.28500
H1038       H  0.55156028  0.56596698  0.30088619     0.28500
H1039       H  0.47376650  0.51767189  0.34354268     0.19100
H1040       H  0.58079459  0.45410323  0.33415917     0.19100
C1041       C  0.33300136  0.29309520  0.43695030    -0.06700
C1042       C  0.34952928  0.26787566  0.45552580    -0.17800
C1043       C  0.33187937  0.23998928  0.46858992     0.10500
C1044       C  0.29685849  0.23671868  0.46271883    -0.06600
C1045       C  0.28090710  0.26106703  0.44261133    -0.17900
C1046       C  0.29838727  0.28883112  0.42965040     0.10500
S1047       S  0.35454301  0.21165146  0.49557134    -0.32800
S1048       S  0.27481904  0.31818649  0.40439834    -0.32800
H1049       H  0.30163493  0.32631163  0.38276118     0.28500
H1050       H  0.33871723  0.18253492  0.48322341     0.28500
H1051       H  0.37610629  0.27072231  0.46128999     0.19100
H1052       H  0.25397744  0.25921502  0.43816695     0.19100
C1053       C  0.29856687  0.44824318  0.33320478    -0.06700
C1054       C  0.29782876  0.48314211  0.32871420    -0.17800
C1055       C  0.27019961  0.49896186  0.31360318     0.10500
C1056       C  0.24248950  0.47963131  0.30190372    -0.06600
C1057       C  0.24259663  0.44482128  0.30750952    -0.17900
C1058       C  0.27034038  0.42893898  0.32276446     0.10500
S1059       S  0.27220266  0.54406043  0.30908074    -0.32800
S1060       S  0.26936996  0.38372259  0.32564288    -0.32800
H1061       H  0.30419986  0.37911682  0.32090152     0.28500
H1062       H  0.23712749  0.54906536  0.30773612     0.28500
H1063       H  0.31887119  0.49832600  0.33737985     0.19100
H1064       H  0.22217653  0.42956797  0.29761333     0.19100
C1065       C  0.44616600  0.34037681  0.29346028    -0.06700
C1066       C  0.48120346  0.33925944  0.28911371    -0.17800
C1067       C  0.49559357  0.32398972  0.26082535     0.10500
C1068       C  0.47476786  0.30840806  0.23640721    -0.06600
C1069       C  0.43964268  0.31144562  0.23956836    -0.17900
C1070       C  0.42514408  0.32731682  0.26772643     0.10500
S1071       S  0.54100447  0.32369130  0.25796577    -0.32800
S1072       S  0.37975022  0.32799303  0.27036137    -0.32800
H1073       H  0.37769018  0.32685497  0.30558827     0.28500
H1074       H  0.54233943  0.31946041  0.22289241     0.28500
H1075       H  0.49755478  0.35021876  0.30805981     0.19100
H1076       H  0.42337979  0.29905516  0.22146282     0.19100
C1077       C  0.49272187  0.30994110  0.55198637    -0.06700
C1078       C  0.51279265  0.31433055  0.52315831    -0.17800
C1079       C  0.50268512  0.33504343  0.49655564     0.10500
C1080       C  0.47161338  0.35214361  0.49832446    -0.06600
C1081       C  0.45268419  0.34995424  0.52817532    -0.17900
C1082       C  0.46272283  0.32877879  0.55486121     0.10500
S1083       S  0.52996180  0.33753914  0.46040662    -0.32800
S1084       S  0.43522948  0.32296680  0.59050188    -0.32800
H1085       H  0.41037348  0.34606860  0.58054114     0.28500
H1086       H  0.52001623  0.36999111  0.45061052     0.28500
H1087       H  0.53584206  0.29997985  0.52052870     0.19100
H1088       H  0.42873999  0.36288347  0.52950137     0.19100
C1089       C  0.44853139  0.00693012  0.31965001    -0.06700
C1090       C  0.44901288  0.04028096  0.33110748    -0.17800
C1091       C  0.47679516  0.05310319  0.34902509     0.10500
C1092       C  0.50460882  0.03204521  0.35630497    -0.06600
C1093       C  0.50282152  0.99801366  0.34736522    -0.17900
C1094       C  0.47498700  0.98522982  0.32956594     0.10500
S1095       S  0.47643913  0.09727847  0.35939212    -0.32800
S1096       S  0.47538383  0.94128861  0.31838910    -0.32800
H1097       H  0.44029674  0.93833461  0.31394467     0.28500
H1098       H  0.51090564  0.10312602  0.35356197     0.28500
H1099       H  0.42927662  0.05734097  0.32320195     0.19100
H1100       H  0.52368143  0.98151933  0.35336125     0.19100
C1101       C  0.70776689  0.06554382  0.32945985    -0.06700
C1102       C  0.73619148  0.05278251  0.34654375    -0.17800
C1103       C  0.76429568  0.04009498  0.32908173     0.10500
C1104       C  0.76410462  0.03963483  0.29361474    -0.06600
C1105       C  0.73665080  0.05446808  0.27676404    -0.17900
C1106       C  0.70897182  0.06770045  0.29409312     0.10500
S1107       S  0.79805316  0.02207622  0.35325568    -0.32800
S1108       S  0.67617592  0.08713816  0.26950377    -0.32800
H1109       H  0.66932845  0.11269632  0.29298363     0.28500
H1110       H  0.82348836  0.03884900  0.33526281     0.28500
H1111       H  0.73604399  0.05154338  0.37374114     0.19100
H1112       H  0.73623373  0.05472221  0.24952772     0.19100
C1113       C  0.66823382  0.21026940  0.44246489    -0.06700
C1114       C  0.70101335  0.21529585  0.43045000    -0.17800
C1115       C  0.72046264  0.24278680  0.44085608     0.10500
C1116       C  0.70760451  0.26573638  0.46484119    -0.06600
C1117       C  0.67412476  0.26184227  0.47566248    -0.17900
C1118       C  0.65429660  0.23442399  0.46472146     0.10500
S1119       S  0.76236113  0.24646047  0.42356193    -0.32800
S1120       S  0.61251432  0.23028972  0.48215664    -0.32800
H1121       H  0.61234743  0.19497237  0.48341020     0.28500
H1122       H  0.76522835  0.28141269  0.42813757     0.28500
H1123       H  0.71168155  0.19750245  0.41276862     0.19100
H1124       H  0.66420417  0.27873806  0.49459522     0.19100
C1125       C  0.55971678  0.16871821  0.29438833    -0.06700
C1126       C  0.53552176  0.15432431  0.27274657    -0.17800
C1127       C  0.52317103  0.17188818  0.24454222     0.10500
C1128       C  0.53563726  0.20441496  0.23726446    -0.06600
C1129       C  0.56103299  0.21785160  0.25809581    -0.17900
C1130       C  0.57313857  0.20053774  0.28625544     0.10500
S1131       S  0.48921252  0.15301265  0.22102154    -0.32800
S1132       S  0.60511563  0.22090702  0.31138419    -0.32800
H1133       H  0.62178544  0.19127958  0.32099633     0.28500
H1134       H  0.49898454  0.16630715  0.18986422     0.28500
H1135       H  0.52513304  0.12980970  0.27865004     0.19100
H1136       H  0.57036478  0.24303796  0.25333202     0.19100
C1137       C  0.53394522  0.14792927  0.49906603    -0.06700
C1138       C  0.55466351  0.15055494  0.52771531    -0.17800
C1139       C  0.54625819  0.17219095  0.55454801     0.10500
C1140       C  0.51624601  0.19112456  0.55287803    -0.06600
C1141       C  0.49421132  0.18589769  0.52562432    -0.17900
C1142       C  0.50262792  0.16458354  0.49894068     0.10500
S1143       S  0.57575121  0.17848440  0.58858762    -0.32800
S1144       S  0.47303758  0.16087275  0.46467809    -0.32800
H1145       H  0.48320605  0.12856235  0.45455372     0.28500
H1146       H  0.59967369  0.15472293  0.57791037     0.28500
H1147       H  0.57876305  0.13780688  0.52777052     0.19100
H1148       H  0.47097905  0.20013912  0.52415833     0.19100
C1149       C  0.65584927  0.00672650  0.47065974    -0.06700
C1150       C  0.65384241  0.97536250  0.45422715    -0.17800
C1151       C  0.67513410  0.94844453  0.46320931     0.10500
C1152       C  0.69819585  0.95235840  0.49009808    -0.06600
C1153       C  0.69765037  0.98277224  0.50832597    -0.17900
C1154       C  0.67713080  0.00974793  0.49891936     0.10500
S1155       S  0.67401162  0.91131480  0.43733830    -0.32800
S1156       S  0.68007927  0.04776583  0.52350916    -0.32800
H1157       H  0.64666966  0.05810735  0.51779997     0.28500
H1158       H  0.70920305  0.90955441  0.43338023     0.28500
H1159       H  0.63759067  0.97266546  0.43247572     0.19100
H1160       H  0.71475686  0.98624029  0.52932568     0.19100
C1161       C  0.18861815  0.55347984  0.51135200    -0.06700
C1162       C  0.17227053  0.55443072  0.54260604    -0.17800
C1163       C  0.15295549  0.52691341  0.55394469     0.10500
C1164       C  0.14974301  0.49775656  0.53355390    -0.06600
C1165       C  0.16385878  0.49805317  0.50135073    -0.17900
C1166       C  0.18248644  0.52569486  0.48986125     0.10500
S1167       S  0.13561389  0.52958290  0.59577967    -0.32800
S1168       S  0.19951376  0.52331386  0.44791048    -0.32800
H1169       H  0.20244778  0.55826078  0.44335469     0.28500
H1170       H  0.13987969  0.49557582  0.60420464     0.28500
H1171       H  0.17703455  0.57526586  0.55951293     0.19100
H1172       H  0.16097680  0.47625832  0.48525814     0.19100
C1173       C  0.05739745  0.33598270  0.70712757    -0.06700
C1174       C  0.02236864  0.33305156  0.71070883    -0.17800
C1175       C  0.00799921  0.31854575  0.73941059     0.10500
C1176       C  0.02885587  0.30571405  0.76529449    -0.06600
C1177       C  0.06390427  0.31004675  0.76249670    -0.17900
C1178       C  0.07834660  0.32495044  0.73377742     0.10500
S1179       S  0.96261198  0.31550963  0.74089853    -0.32800
S1180       S  0.12371711  0.32664912  0.73144935    -0.32800
H1181       H  0.12579250  0.32202531  0.69647825     0.28500
H1182       H  0.96031795  0.31356294  0.77610996     0.28500
H1183       H  0.00596786  0.34216412  0.69090006     0.19100
H1184       H  0.08029193  0.29929637  0.78145452     0.19100
C1185       C  0.02970996  0.35079217  0.50290101    -0.06700
C1186       C  0.04750418  0.35104915  0.47231339    -0.17800
C1187       C  0.03847419  0.32949567  0.44563193     0.10500
C1188       C  0.01131894  0.30673967  0.44966406    -0.06600
C1189       C  0.99169783  0.30909305  0.47899127    -0.17900
C1190       C  0.00033228  0.33086846  0.50529015     0.10500
S1191       S  0.06484584  0.32933049  0.40891164    -0.32800
S1192       S  0.97359186  0.33104458  0.54189372    -0.32800
H1193       H  0.98094923  0.36435251  0.55135019     0.28500
H1194       H  0.03752470  0.33181842  0.38649522     0.28500
H1195       H  0.07002315  0.36641844  0.46999784     0.19100
H1196       H  0.97028072  0.29236740  0.48226201     0.19100
C1197       C  0.26770192  0.46140231  0.70189398    -0.06700
C1198       C  0.26512382  0.46859704  0.66746392    -0.17800
C1199       C  0.23702894  0.45771731  0.64849167     0.10500
C1200       C  0.21060486  0.43942136  0.66427413    -0.06600
C1201       C  0.21422238  0.43086652  0.69819425    -0.17900
C1202       C  0.24252895  0.44094491  0.71677604     0.10500
S1203       S  0.23534019  0.47016233  0.60494749    -0.32800
S1204       S  0.24463560  0.42773342  0.76008717    -0.32800
H1205       H  0.27998939  0.42941502  0.76264307     0.28500
H1206       H  0.20030215  0.47525194  0.60398317     0.28500
H1207       H  0.28377187  0.48475328  0.65584173     0.19100
H1208       H  0.19487380  0.41595607  0.71035037     0.19100
C1209       C  0.20379583  0.23448627  0.53979939    -0.06700
C1210       C  0.17056566  0.23863175  0.52836931    -0.17800
C1211       C  0.15128593  0.26654996  0.53836043     0.10500
C1212       C  0.16561315  0.29088464  0.56019466    -0.06600
C1213       C  0.19797268  0.28549203  0.57315583    -0.17900
C1214       C  0.21685758  0.25742413  0.56367615     0.10500
S1215       S  0.10971325  0.27093707  0.52036769    -0.32800
S1216       S  0.25838770  0.25298551  0.58165657    -0.32800
H1217       H  0.26047480  0.21799355  0.57701700     0.28500
H1218       H  0.10973534  0.30624829  0.51911042     0.28500
H1219       H  0.16056700  0.22160889  0.50953407     0.19100
H1220       H  0.20873011  0.30343014  0.59069423     0.19100
C1221       C  0.95157726  0.48563334  0.68926718    -0.06700
C1222       C  0.97924276  0.50729320  0.68418760    -0.17800
C1223       C  0.00634313  0.49820848  0.66358947     0.10500
C1224       C  0.00613480  0.46664958  0.64753939    -0.06600
C1225       C  0.97722491  0.44626124  0.65002677    -0.17900
C1226       C  0.95000064  0.45539709  0.67065683     0.10500
S1227       S  0.04121077  0.52717026  0.66010610    -0.32800
S1228       S  0.91631300  0.42547255  0.67577155    -0.32800
H1229       H  0.89073317  0.44968130  0.67283504     0.28500
H1230       H  0.05178975  0.51638891  0.62814582     0.28500
H1231       H  0.98083681  0.53059423  0.69827775     0.19100
H1232       H  0.97682074  0.42195998  0.63765859     0.19100
C1233       C  0.14491003  0.99837295  0.48160424    -0.06700
C1234       C  0.14064804  0.03021240  0.46672202    -0.17800
C1235       C  0.16169206  0.05757030  0.47535137     0.10500
C1236       C  0.18803190  0.05291060  0.49889263    -0.06600
C1237       C  0.18903628  0.02234152  0.51668216    -0.17900
C1238       C  0.16799368  0.99531518  0.50842117     0.10500
S1239       S  0.15589592  0.09646267  0.45318177    -0.32800
S1240       S  0.17327270  0.95689379  0.53184604    -0.32800
H1241       H  0.13988926  0.94560949  0.52755433     0.28500
H1242       H  0.15803567  0.11624536  0.48243859     0.28500
H1243       H  0.12250464  0.03320425  0.44656531     0.19100
H1244       H  0.20819871  0.01855468  0.53575850     0.19100
C1245       C  0.02933610  0.85108020  0.50296718    -0.06700
C1246       C  0.99911824  0.83295211  0.50056085    -0.17800
C1247       C  0.98745530  0.81321740  0.52733310     0.10500
C1248       C  0.00698326  0.81003468  0.55708836    -0.06600
C1249       C  0.03575395  0.83036457  0.56062866    -0.17900
C1250       C  0.04716362  0.85068159  0.53393486     0.10500
S1251       S  0.94816079  0.79098282  0.52126405    -0.32800
S1252       S  0.08655847  0.87268350  0.53979314    -0.32800
H1253       H  0.09952359  0.86523788  0.50776080     0.28500
H1254       H  0.94085289  0.78736847  0.55565406     0.28500
H1255       H  0.98486061  0.83352849  0.47734336     0.19100
H1256       H  0.05124489  0.82795072  0.58291606     0.19100
C1257       C  0.04957525  0.79276197  0.24302579    -0.06700
C1258       C  0.04149293  0.82706555  0.24373837    -0.17800
C1259       C  0.04954366  0.84720172  0.27179101     0.10500
C1260       C  0.06636046  0.83290990  0.29983074    -0.06600
C1261       C  0.07630468  0.79918394  0.29803590    -0.17900
C1262       C  0.06858600  0.77925914  0.26998464     0.10500
S1263       S  0.03495407  0.89009464  0.27146333    -0.32800
S1264       S  0.08264709  0.73613855  0.27059326    -0.32800
H1265       H  0.08251710  0.73170269  0.23552026     0.28500
H1266       H  0.02611016  0.89106161  0.30566936     0.28500
H1267       H  0.02636007  0.83759169  0.22365547     0.19100
H1268       H  0.09019259  0.78817453  0.31875857     0.19100
C1269       C  0.16130100  0.79518344  0.45500941    -0.06700
C1270       C  0.16659889  0.79325098  0.48975547    -0.17800
C1271       C  0.18144818  0.76488935  0.50434389     0.10500
C1272       C  0.19230792  0.73783689  0.48387800    -0.06600
C1273       C  0.18498310  0.73875647  0.44939742    -0.17900
C1274       C  0.16973841  0.76709912  0.43476518     0.10500
S1275       S  0.18752917  0.76532660  0.54928470    -0.32800
S1276       S  0.16453077  0.76705078  0.38975428    -0.32800
H1277       H  0.17161064  0.80142247  0.38538394     0.28500
H1278       H  0.18963895  0.73022609  0.55287288     0.28500
H1279       H  0.15917149  0.81406033  0.50569688     0.19100
H1280       H  0.19394998  0.71871328  0.43329356     0.19100
C1281       C  0.24066048  0.95314468  0.70311660    -0.06700
C1282       C  0.25705706  0.97472806  0.68056049    -0.17800
C1283       C  0.28650607  0.96506680  0.66371294     0.10500
C1284       C  0.30098132  0.93319017  0.67011836    -0.06600
C1285       C  0.28324171  0.91068820  0.69096348    -0.17900
C1286       C  0.25342026  0.92030826  0.70745301     0.10500
S1287       S  0.30423301  0.99478996  0.63446277    -0.32800
S1288       S  0.23428213  0.89051792  0.73572356    -0.32800
H1289       H  0.20183108  0.90458406  0.73465874     0.28500
H1290       H  0.31284261  0.97040139  0.61033297     0.28500
H1291       H  0.24780246  0.00014202  0.67740059     0.19100
H1292       H  0.29336317  0.88584119  0.69555457     0.19100
C1293       C  0.35275639  0.00072186  0.53426204    -0.06700
C1294       C  0.33294395  0.99482020  0.50547681    -0.17800
C1295       C  0.31195016  0.01977092  0.49194761     0.10500
C1296       C  0.30932532  0.05155695  0.50789242    -0.06600
C1297       C  0.33135810  0.05874773  0.53448468    -0.17900
C1298       C  0.35342264  0.03419643  0.54730811     0.10500
S1299       S  0.28794912  0.00896969  0.45486188    -0.32800
S1300       S  0.38077523  0.04753833  0.58097994    -0.32800
H1301       H  0.40946634  0.03196217  0.56724790     0.28500
H1302       H  0.28448685  0.04217503  0.44326614     0.28500
H1303       H  0.33272769  0.97014244  0.49395920     0.19100
H1304       H  0.33006178  0.08307225  0.54669207     0.19100
C1305       C  0.47246952  0.84961375  0.49879144    -0.06700
C1306       C  0.49990502  0.82861140  0.50617710    -0.17800
C1307       C  0.51317258  0.80660231  0.48219012     0.10500
C1308       C  0.49801466  0.80406128  0.44996895    -0.06600
C1309       C  0.47357852  0.82779699  0.44105702    -0.17900
C1310       C  0.46108501  0.85100842  0.46480398     0.10500
S1311       S  0.54871258  0.78131371  0.49498666    -0.32800
S1312       S  0.43005373  0.88120800  0.45096868    -0.32800
H1313       H  0.43319912  0.87508108  0.41629011     0.28500
H1314       H  0.56169011  0.77705295  0.46237273     0.28500
H1315       H  0.51038282  0.82816194  0.53129854     0.19100
H1316       H  0.46249410  0.82656156  0.41624005     0.19100
C1317       C  0.45607474  0.83215198  0.70162702    -0.06700
C1318       C  0.43658194  0.80906363  0.72011916    -0.17800
C1319       C  0.44887548  0.79382505  0.74948359     0.10500
C1320       C  0.48157658  0.80152614  0.76131193    -0.06600
C1321       C  0.50080550  0.82527532  0.74352252    -0.17900
C1322       C  0.48830731  0.84107298  0.71443804     0.10500
S1323       S  0.42291901  0.76212474  0.76891951    -0.32800
S1324       S  0.51474747  0.87247258  0.69521428    -0.32800
H1325       H  0.48812492  0.89477028  0.68840825     0.28500
H1326       H  0.43389868  0.76861193  0.80186719     0.28500
H1327       H  0.41179147  0.80192820  0.71106303     0.19100
H1328       H  0.52632989  0.83071070  0.75171818     0.19100
C1329       C  0.33697043  0.79447700  0.55659675    -0.06700
C1330       C  0.33325448  0.79082958  0.52162493    -0.17800
C1331       C  0.31725521  0.76273067  0.50748826     0.10500
C1332       C  0.30428425  0.73709228  0.52837123    -0.06600
C1333       C  0.30960399  0.73944060  0.56308256    -0.17900
C1334       C  0.32565579  0.76767655  0.57753670     0.10500
S1335       S  0.31189632  0.76211700  0.46245369    -0.32800
S1336       S  0.32835269  0.76984302  0.62287865    -0.32800
H1337       H  0.31677440  0.73711105  0.62964512     0.28500
H1338       H  0.30821076  0.72705796  0.45960325     0.28500
H1339       H  0.34225577  0.81036688  0.50497828     0.19100
H1340       H  0.29850749  0.72047658  0.57909705     0.19100
C1341       C  0.06451976  0.17169697  0.20652457    -0.06700
C1342       C  0.03052019  0.16502505  0.21413417    -0.17800
C1343       C  0.01521687  0.17827373  0.24305620     0.10500
C1344       C  0.03415210  0.19841364  0.26538841    -0.06600
C1345       C  0.06855350  0.20346675  0.25903692    -0.17900
C1346       C  0.08383558  0.19072271  0.22984907     0.10500
S1347       S  0.97088557  0.17091060  0.25060250    -0.32800
S1348       S  0.12708083  0.20253859  0.22247208    -0.32800
H1349       H  0.12214765  0.21003083  0.18827714     0.28500
H1350       H  0.96546690  0.14882523  0.22347265     0.28500
H1351       H  0.01567098  0.14983164  0.19699703     0.19100
H1352       H  0.08291681  0.22001496  0.27535854     0.19100
C1353       C  0.02013727  0.19184705  0.94838531    -0.06700
C1354       C  0.99965668  0.18503433  0.97641722    -0.17800
C1355       C  0.01027304  0.16366892  0.00230550     0.10500
C1356       C  0.04284419  0.14931831  0.00110950    -0.06600
C1357       C  0.06168541  0.15313358  0.97123987    -0.17900
C1358       C  0.05090262  0.17440390  0.94519137     0.10500
S1359       S  0.98107409  0.15617189  0.03615283    -0.32800
S1360       S  0.07906535  0.18073959  0.91029134    -0.32800
H1361       H  0.07674720  0.21599680  0.91071714     0.28500
H1362       H  0.99074398  0.12248658  0.04086685     0.28500
H1363       H  0.97564216  0.19770297  0.97888502     0.19100
H1364       H  0.08633305  0.14170189  0.96916143     0.19100
C1365       C  0.26628849  0.96212415  0.30926837    -0.06700
C1366       C  0.24916564  0.93285775  0.29908178    -0.17800
C1367       C  0.22082497  0.92100013  0.31649236     0.10500
C1368       C  0.20890330  0.93890967  0.34469691    -0.06600
C1369       C  0.22684569  0.96726398  0.35588899    -0.17900
C1370       C  0.25519890  0.97914664  0.33839691     0.10500
S1371       S  0.19992692  0.88401133  0.30028893    -0.32800
S1372       S  0.27395064  0.01803065  0.35241831    -0.32800
H1373       H  0.30647013  0.01110360  0.34037268     0.28500
H1374       H  0.18621264  0.87309375  0.33093582     0.28500
H1375       H  0.25674906  0.92024595  0.27616218     0.19100
H1376       H  0.21790408  0.98103176  0.37761209     0.19100
C1377       C  0.26579831  0.02529736  0.20663876    -0.06700
C1378       C  0.26278465  0.06040051  0.20656617    -0.17800
C1379       C  0.23462614  0.07636098  0.19207379     0.10500
C1380       C  0.20880999  0.05690866  0.17636557    -0.06600
C1381       C  0.21315603  0.02185244  0.17492020    -0.17900
C1382       C  0.24103051  0.00606487  0.18968857     0.10500
S1383       S  0.23209544  0.12125552  0.19740458    -0.32800
S1384       S  0.24272140  0.96078864  0.18764228    -0.32800
H1385       H  0.27787165  0.95832782  0.19166649     0.28500
H1386       H  0.19860907  0.12051386  0.20905551     0.28500
H1387       H  0.28093759  0.07534145  0.22048035     0.19100
H1388       H  0.19445849  0.00633712  0.16245111     0.19100
C1389       C  0.15387421  0.99902358  0.03927400    -0.06700
C1390       C  0.15770466  0.96905945  0.05783896    -0.17800
C1391       C  0.17566480  0.94147329  0.04504939     0.10500
C1392       C  0.19104021  0.94370939  0.01322253    -0.06600
C1393       C  0.18432229  0.97210930  0.99332536    -0.17900
C1394       C  0.16566468  0.99950043  0.00566891     0.10500
S1395       S  0.18136879  0.90567089  0.07198737    -0.32800
S1396       S  0.15800389  0.03486697  0.97821871    -0.32800
H1397       H  0.17269872  0.02120029  0.94911702     0.28500
H1398       H  0.17438141  0.88221134  0.04642514     0.28500
H1399       H  0.14817512  0.96758019  0.08325123     0.19100
H1400       H  0.19583092  0.97374990  0.96875322     0.19100
C1401       C  0.20713012  0.26336425  0.03340792    -0.06700
C1402       C  0.18192512  0.24656127  0.01515319    -0.17800
C1403       C  0.16534147  0.21830950  0.02834135     0.10500
C1404       C  0.17502315  0.20540364  0.06010464    -0.06600
C1405       C  0.19879424  0.22353342  0.07915089    -0.17900
C1406       C  0.21483249  0.25220030  0.06618416     0.10500
S1407       S  0.13202205  0.20007513  0.00338102    -0.32800
S1408       S  0.24734669  0.27160636  0.09133710    -0.32800
H1409       H  0.24358234  0.30399004  0.07783824     0.28500
H1410       H  0.11142226  0.19195814  0.03096703     0.28500
H1411       H  0.17612346  0.25464443  0.98979954     0.19100
H1412       H  0.20606764  0.21448912  0.10377778     0.19100
C1413       C  0.94892382  0.99146457  0.31573438    -0.06700
C1414       C  0.97733675  0.01236358  0.32021436    -0.17800
C1415       C  0.00427586  0.00309137  0.34105942     0.10500
C1416       C  0.00324468  0.97205719  0.35807733    -0.06600
C1417       C  0.97368187  0.95251983  0.35606977    -0.17900
C1418       C  0.94660278  0.96188113  0.33520931     0.10500
S1419       S  0.03990266  0.03122990  0.34372745    -0.32800
S1420       S  0.91192221  0.93295784  0.33112475    -0.32800
H1421       H  0.88727955  0.95799464  0.33506589     0.28500
H1422       H  0.05024869  0.02115379  0.37598349     0.28500
H1423       H  0.97953802  0.03524179  0.30562359     0.19100
H1424       H  0.97257690  0.92863162  0.36906037     0.19100
C1425       C  0.95195279  0.01358776  0.19666058    -0.06700
C1426       C  0.94666482  0.04318145  0.17850228    -0.17800
C1427       C  0.97175427  0.05649537  0.15735672     0.10500
C1428       C  0.00380541  0.04032216  0.15460764    -0.06600
C1429       C  0.00773739  0.00916332  0.17077464    -0.17900
C1430       C  0.98226950  0.99561935  0.19137334     0.10500
S1431       S  0.96134590  0.09538412  0.13669086    -0.32800
S1432       S  0.98901956  0.95554489  0.21165329    -0.32800
H1433       H  0.02081432  0.94880341  0.19759660     0.28500
H1434       H  0.96915046  0.08286545  0.10453347     0.28500
H1435       H  0.92358997  0.05717736  0.18235472     0.19100
H1436       H  0.03135899  0.99587482  0.16828859     0.19100
C1437       C  0.56019536  0.98952945  0.68854808    -0.06700
C1438       C  0.53208971  0.01023585  0.68235019    -0.17800
C1439       C  0.50574308  0.00010668  0.66093425     0.10500
C1440       C  0.50645222  0.96773177  0.64623848    -0.06600
C1441       C  0.53623159  0.94864600  0.64973750    -0.17900
C1442       C  0.56297136  0.95923012  0.67034336     0.10500
S1443       S  0.47197869  0.02948311  0.65381680    -0.32800
S1444       S  0.59785694  0.93091527  0.67573195    -0.32800
H1445       H  0.62225376  0.95582707  0.66945544     0.28500
H1446       H  0.46635547  0.01953414  0.62031220     0.28500
H1447       H  0.52993707  0.03399936  0.69551707     0.19100
H1448       H  0.53801775  0.92409890  0.63807931     0.19100
C1449       C  0.30974594  0.94802303  0.98746534    -0.06700
C1450       C  0.33092152  0.94115056  0.96020583    -0.17800
C1451       C  0.35308458  0.96570801  0.94754393     0.10500
C1452       C  0.35313141  0.99884754  0.96141610    -0.06600
C1453       C  0.33416840  0.00435284  0.99069199    -0.17900
C1454       C  0.31331462  0.97933261  0.00416366     0.10500
S1455       S  0.37914972  0.95298788  0.91274664    -0.32800
S1456       S  0.29114208  0.98938440  0.04245939    -0.32800
H1457       H  0.28891801  0.95599944  0.05387941     0.28500
H1458       H  0.40892713  0.96571828  0.92732415     0.28500
H1459       H  0.32898684  0.91709918  0.94754610     0.19100
H1460       H  0.33473253  0.02872625  0.00283015     0.19100
C1461       C  0.33482915  0.20524510  0.93612204    -0.06700
C1462       C  0.34115780  0.21373202  0.96987314    -0.17800
C1463       C  0.32783182  0.24291679  0.98430958     0.10500
C1464       C  0.30685729  0.26411931  0.96516090    -0.06600
C1465       C  0.30244407  0.25723452  0.93088234    -0.17900
C1466       C  0.31648500  0.22832521  0.91597772     0.10500
S1467       S  0.33665406  0.25086264  0.02808379    -0.32800
S1468       S  0.30777104  0.22007384  0.87214686    -0.32800
H1469       H  0.29525150  0.25217994  0.86431262     0.28500
H1470       H  0.33057910  0.28565878  0.02679290     0.28500
H1471       H  0.35632399  0.19726858  0.98539757     0.19100
H1472       H  0.28562197  0.27303603  0.91643559     0.19100
C1473       C  0.46406352  0.15334344  0.99853273    -0.06700
C1474       C  0.44370457  0.15841500  0.02726306    -0.17800
C1475       C  0.45426206  0.17876779  0.05434652     0.10500
C1476       C  0.48630527  0.19402673  0.05346499    -0.06600
C1477       C  0.50749165  0.18730109  0.02590862    -0.17900
C1478       C  0.49701735  0.16712827  0.99881733     0.10500
S1479       S  0.42526310  0.18821655  0.08800748    -0.32800
S1480       S  0.52677902  0.16082166  0.96526004    -0.32800
H1481       H  0.51835250  0.12676852  0.96051503     0.28500
H1482       H  0.39732523  0.17079001  0.07479572     0.28500
H1483       H  0.41844355  0.14806713  0.02769492     0.19100
H1484       H  0.53204213  0.19931702  0.02472324     0.19100
C1485       C  0.29890723  0.05411621  0.82869009    -0.06700
C1486       C  0.28193598  0.07074534  0.80259008    -0.17800
C1487       C  0.25293582  0.05687802  0.78766593     0.10500
C1488       C  0.24007477  0.02573314  0.79903440    -0.06600
C1489       C  0.25583161  0.01008823  0.82643329    -0.17900
C1490       C  0.28475321  0.02409395  0.84163007     0.10500
S1491       S  0.23525781  0.07847982  0.75199158    -0.32800
S1492       S  0.30320857  0.00345227  0.87761886    -0.32800
H1493       H  0.27756492  0.97941258  0.88218982     0.28500
H1494       H  0.20212023  0.06683767  0.75667399     0.28500
H1495       H  0.29210721  0.09404483  0.79280234     0.19100
H1496       H  0.24658819  0.98583521  0.83464974     0.19100
C1497       C  0.55902415  0.01557840  0.80734873    -0.06700
C1498       C  0.53134281  0.99453703  0.81414675    -0.17800
C1499       C  0.50505565  0.00473285  0.83537190     0.10500
C1500       C  0.50534326  0.03755346  0.84920964    -0.06600
C1501       C  0.53450878  0.05740053  0.84461606    -0.17900
C1502       C  0.56118123  0.04678047  0.82406573     0.10500
S1503       S  0.47192428  0.97470675  0.84334500    -0.32800
S1504       S  0.59513133  0.07591906  0.81667515    -0.32800
H1505       H  0.62045939  0.05201274  0.82267609     0.28500
H1506       H  0.46714278  0.98464815  0.87695887     0.28500
H1507       H  0.52957655  0.97031590  0.80175203     0.19100
H1508       H  0.53582825  0.08235511  0.85544362     0.19100
C1509       C  0.47376686  0.19914561  0.73433762    -0.06700
C1510       C  0.49460480  0.17940307  0.75486984    -0.17800
C1511       C  0.48213237  0.16302997  0.78344023     0.10500
C1512       C  0.44791759  0.16715160  0.79282379    -0.06600
C1513       C  0.42663639  0.18525236  0.77101235    -0.17900
C1514       C  0.43911126  0.20106285  0.74201450     0.10500
S1515       S  0.51141072  0.13742794  0.80661972    -0.32800
S1516       S  0.41030324  0.22613001  0.71769615    -0.32800
H1517       H  0.42579797  0.21957147  0.68666771     0.28500
H1518       H  0.48821615  0.11112929  0.81177719     0.28500
H1519       H  0.52137768  0.17808189  0.74947523     0.19100
H1520       H  0.40020838  0.18825022  0.77721546     0.19100
C1521       C  0.69753529  0.23206527  0.97266473    -0.06700
C1522       C  0.67943645  0.25383581  0.99386642    -0.17800
C1523       C  0.66326594  0.28265805  0.98155619     0.10500
C1524       C  0.66561573  0.29087696  0.94714221    -0.06600
C1525       C  0.68209673  0.26829721  0.92547727    -0.17900
C1526       C  0.69807775  0.23916893  0.93783110     0.10500
S1527       S  0.64076832  0.30849150  0.01126535    -0.32800
S1528       S  0.72141891  0.21383181  0.90847657    -0.32800
H1529       H  0.71465383  0.18317307  0.92457226     0.28500
H1530       H  0.61552096  0.31901079  0.98881187     0.28500
H1531       H  0.67930984  0.24920723  0.02071463     0.19100
H1532       H  0.68346602  0.27394597  0.89887102     0.19100
C1533       C  0.53237507  0.35110144  0.99668757    -0.06700
C1534       C  0.55205888  0.35022699  0.02616184    -0.17800
C1535       C  0.54252887  0.33042173  0.05398159     0.10500
C1536       C  0.51225740  0.31176920  0.05258203    -0.06600
C1537       C  0.49119917  0.31544015  0.02427052    -0.17900
C1538       C  0.50090601  0.33467344  0.99646880     0.10500
S1539       S  0.57082649  0.32612459  0.08926774    -0.32800
S1540       S  0.47270128  0.33610655  0.96092960    -0.32800
H1541       H  0.48332119  0.36772586  0.94920344     0.28500
H1542       H  0.59622653  0.34764589  0.07715612     0.28500
H1543       H  0.57612591  0.36314574  0.02638079     0.19100
H1544       H  0.46781956  0.30131385  0.02287785     0.19100
C1545       C  0.71366484  0.44177637  0.84148977    -0.06700
C1546       C  0.72909581  0.42051347  0.81799068    -0.17800
C1547       C  0.75750920  0.43090199  0.79969815     0.10500
C1548       C  0.77105906  0.46344946  0.80465543    -0.06600
C1549       C  0.75641608  0.48423617  0.82916893    -0.17900
C1550       C  0.72825481  0.47365419  0.84790298     0.10500
S1551       S  0.77373529  0.40246249  0.76836047    -0.32800
S1552       S  0.71087300  0.50293703  0.87786766    -0.32800
H1553       H  0.69625093  0.47899769  0.89929495     0.28500
H1554       H  0.80669296  0.41552258  0.76815991     0.28500
H1555       H  0.71834850  0.39589875  0.81315925     0.19100
H1556       H  0.76580537  0.50964404  0.83242187     0.19100
C1557       C  0.50718550  0.46977414  0.85050963    -0.06700
C1558       C  0.47608535  0.45251268  0.85109983    -0.17800
C1559       C  0.44909206  0.46191748  0.82983285     0.10500
C1560       C  0.45313282  0.48937440  0.80774877    -0.06600
C1561       C  0.48307441  0.50841400  0.80980798    -0.17900
C1562       C  0.50981115  0.49910598  0.83083485     0.10500
S1563       S  0.41127867  0.43662742  0.82844370    -0.32800
S1564       S  0.54711468  0.52513074  0.83059501    -0.32800
H1565       H  0.55676795  0.51793071  0.86383791     0.28500
H1566       H  0.41975360  0.41524262  0.85524816     0.28500
H1567       H  0.47385272  0.43011379  0.86636793     0.19100
H1568       H  0.48646693  0.52983173  0.79332443     0.19100
C1569       C  0.56958414  0.33189755  0.79374627    -0.06700
C1570       C  0.55276328  0.34846721  0.76733466    -0.17800
C1571       C  0.54085540  0.33079464  0.73898938     0.10500
C1572       C  0.54592563  0.29575986  0.73671877    -0.06600
C1573       C  0.56490781  0.27987525  0.76205483    -0.17900
C1574       C  0.57676020  0.29736500  0.79023481     0.10500
S1575       S  0.51640465  0.35348265  0.70848790    -0.32800
S1576       S  0.60037794  0.27392349  0.82104840    -0.32800
H1577       H  0.62207219  0.30051087  0.82996302     0.28500
H1578       H  0.53236742  0.33862770  0.68070789     0.28500
H1579       H  0.54752544  0.37509742  0.76947879     0.19100
H1580       H  0.56910415  0.25299160  0.76070871     0.19100
C1581       C  0.68596163  0.54924342  0.00103486    -0.06700
C1582       C  0.66635179  0.55391864  0.97206665    -0.17800
C1583       C  0.64649143  0.52759531  0.95898312     0.10500
C1584       C  0.64620274  0.49586603  0.97520301    -0.06600
C1585       C  0.66274861  0.49261047  0.00612576    -0.17900
C1586       C  0.68190225  0.51912305  0.01956492     0.10500
S1587       S  0.62486358  0.53516920  0.91985487    -0.32800
S1588       S  0.70251329  0.51372441  0.05977892    -0.32800
H1589       H  0.68781921  0.48253335  0.06776571     0.28500
H1590       H  0.63354188  0.50431169  0.90498147     0.28500
H1591       H  0.66903757  0.57690981  0.95774725     0.19100
H1592       H  0.66167285  0.46874173  0.01913933     0.19100
C1593       C  0.96257479  0.34942634  0.00439415    -0.06700
C1594       C  0.99317404  0.33244678  0.00943634    -0.17800
C1595       C  0.00808697  0.31324354  0.98395695     0.10500
C1596       C  0.99171849  0.30937499  0.95245142    -0.06600
C1597       C  0.96295136  0.32870852  0.94611310    -0.17900
C1598       C  0.94867926  0.34917985  0.97123570     0.10500
S1599       S  0.04767434  0.29319696  0.99382954    -0.32800
S1600       S  0.91208827  0.37303536  0.95908955    -0.32800
H1601       H  0.92443841  0.40321893  0.97297635     0.28500
H1602       H  0.05924399  0.29189138  0.96045243     0.28500
H1603       H  0.00529417  0.33319207  0.03384262     0.19100
H1604       H  0.95036662  0.32647244  0.92201838     0.19100
C1605       C  0.96696794  0.29811289  0.26879528    -0.06700
C1606       C  0.93361332  0.29110917  0.25939397    -0.17800
C1607       C  0.91943806  0.30522619  0.23036650     0.10500
C1608       C  0.93880386  0.32750959  0.21034661    -0.06600
C1609       C  0.97144092  0.33621442  0.22117143    -0.17900
C1610       C  0.98565993  0.32168773  0.25005012     0.10500
S1611       S  0.87788439  0.29093714  0.21859175    -0.32800
S1612       S  0.02852617  0.33163049  0.26188874    -0.32800
H1613       H  0.03432374  0.35586414  0.23683671     0.28500
H1614       H  0.88548067  0.28742106  0.18424318     0.28500
H1615       H  0.91958523  0.27207317  0.27295548     0.19100
H1616       H  0.98608374  0.35389669  0.20653535     0.19100
C1617       C  0.99860589  0.46299359  0.15736604    -0.06700
C1618       C  0.02929768  0.44517388  0.16036653    -0.17800
C1619       C  0.05624305  0.45710135  0.18012976     0.10500
C1620       C  0.05338036  0.48814372  0.19701866    -0.06600
C1621       C  0.02395598  0.50723428  0.19189728    -0.17900
C1622       C  0.99700831  0.49542107  0.17210579     0.10500
S1623       S  0.09210210  0.42992375  0.18551929    -0.32800
S1624       S  0.96138689  0.52299449  0.16723970    -0.32800
H1625       H  0.95691911  0.51557940  0.13293209     0.28500
H1626       H  0.09291422  0.43280564  0.22074107     0.28500
H1627       H  0.03169513  0.42050566  0.14909576     0.19100
H1628       H  0.02137784  0.53121375  0.20460688     0.19100
C1629       C  0.82898598  0.28964152  0.06659056    -0.06700
C1630       C  0.80613421  0.27114353  0.08639274    -0.17800
C1631       C  0.79015049  0.24193527  0.07387444     0.10500
C1632       C  0.79724375  0.23055567  0.04103141    -0.06600
C1633       C  0.82181185  0.24759384  0.02225381    -0.17900
C1634       C  0.83818485  0.27633919  0.03483019     0.10500
S1635       S  0.75868630  0.22066654  0.09881853    -0.32800
S1636       S  0.87069973  0.29470410  0.00904046    -0.32800
H1637       H  0.89177606  0.30357339  0.03612835     0.28500
H1638       H  0.76290751  0.24016118  0.12804574     0.28500
H1639       H  0.79950496  0.28054136  0.11104437     0.19100
H1640       H  0.82717757  0.23933374  0.99686184     0.19100
C1641       C  0.84850086  0.49636919  0.04256799    -0.06700
C1642       C  0.84526409  0.52608361  0.06172638    -0.17800
C1643       C  0.82355959  0.55205360  0.05188534     0.10500
C1644       C  0.80552652  0.54920393  0.02147152    -0.06600
C1645       C  0.81142613  0.52123545  0.00069098    -0.17900
C1646       C  0.83299219  0.49519747  0.01055460     0.10500
S1647       S  0.81708553  0.58615130  0.08102210    -0.32800
S1648       S  0.83917339  0.46120399  0.98123618    -0.32800
H1649       H  0.87319519  0.45610049  0.98993006     0.28500
H1650       H  0.78169575  0.58570646  0.07865091     0.28500
H1651       H  0.85737457  0.52801269  0.08604430     0.19100
H1652       H  0.79794023  0.51898004  0.97709936     0.19100
C1653       C  0.73424837  0.46861653  0.20518535    -0.06700
C1654       C  0.75332411  0.48837435  0.18299581    -0.17800
C1655       C  0.78186220  0.47561120  0.16659764     0.10500
C1656       C  0.79264747  0.44227928  0.17307502    -0.06600
C1657       C  0.77211689  0.42187301  0.19352605    -0.17900
C1658       C  0.74325761  0.43461284  0.20950582     0.10500
S1659       S  0.80330121  0.50343055  0.13803707    -0.32800
S1660       S  0.72100598  0.40727222  0.23793964    -0.32800
H1661       H  0.68947567  0.42275008  0.23382982     0.28500
H1662       H  0.80916772  0.47841045  0.11373714     0.28500
H1663       H  0.74701747  0.51470596  0.17989061     0.19100
H1664       H  0.77938230  0.39608722  0.19837661     0.19100
C1665       C  0.94565307  0.66584390  0.29424248    -0.06700
C1666       C  0.97350911  0.65265685  0.27698019    -0.17800
C1667       C  0.98728692  0.66915467  0.24898585     0.10500
C1668       C  0.97280104  0.69941136  0.23744460    -0.06600
C1669       C  0.94376429  0.71156942  0.25364663    -0.17900
C1670       C  0.92987546  0.69499350  0.28157730     0.10500
S1671       S  0.02557203  0.65241071  0.23134198    -0.32800
S1672       S  0.89285642  0.71297187  0.30072116    -0.32800
H1673       H  0.87975409  0.68265025  0.31332048     0.28500
H1674       H  0.02037121  0.66502356  0.19880198     0.28500
H1675       H  0.98561452  0.63013002  0.28633085     0.19100
H1676       H  0.93296082  0.73526436  0.24568037     0.19100
C1677       C  0.97638162  0.65001569  0.49919154    -0.06700
C1678       C  0.95871889  0.64789849  0.52977640    -0.17800
C1679       C  0.96804580  0.66750782  0.55773052     0.10500
C1680       C  0.99567098  0.68984069  0.55520787    -0.06600
C1681       C  0.01511282  0.68932602  0.52562919    -0.17900
C1682       C  0.00584970  0.66985114  0.49780079     0.10500
S1683       S  0.94132326  0.66612764  0.59417382    -0.32800
S1684       S  0.03185556  0.67259811  0.46076872    -0.32800
H1685       H  0.02490088  0.63986250  0.44924825     0.28500
H1686       H  0.96842061  0.66328150  0.61680388     0.28500
H1687       H  0.93609073  0.63260661  0.53122171     0.19100
H1688       H  0.03657230  0.70613024  0.52332551     0.19100
C1689       C  0.00304982  0.53186339  0.35769743    -0.06700
C1690       C  0.03304337  0.55092022  0.35736536    -0.17800
C1691       C  0.05992068  0.54260184  0.33579784     0.10500
C1692       C  0.05721848  0.51398765  0.31484723    -0.06600
C1693       C  0.02884547  0.49292630  0.31854973    -0.17900
C1694       C  0.00190525  0.50154112  0.33947302     0.10500
S1695       S  0.09512095  0.57119301  0.33377478    -0.32800
S1696       S  0.96608817  0.47355576  0.34070543    -0.32800
H1697       H  0.95556821  0.48262332  0.37321328     0.28500
H1698       H  0.09613132  0.57239443  0.29849297     0.28500
H1699       H  0.03434540  0.57411148  0.37165594     0.19100
H1700       H  0.02660218  0.47049489  0.30318187     0.19100
C1701       C  0.81511043  0.45002978  0.49367145    -0.06700
C1702       C  0.83609958  0.44621812  0.46554102    -0.17800
C1703       C  0.85639284  0.47301478  0.45405744     0.10500
C1704       C  0.85611084  0.50432860  0.47124425    -0.06600
C1705       C  0.83716372  0.50706020  0.50077033    -0.17900
C1706       C  0.81735357  0.48033262  0.51241276     0.10500
S1707       S  0.87922749  0.46669093  0.41543004    -0.32800
S1708       S  0.79381927  0.48724074  0.55060212    -0.32800
H1709       H  0.79101344  0.45306273  0.55918654     0.28500
H1710       H  0.87186503  0.49843312  0.40181153     0.28500
H1711       H  0.83432225  0.42349752  0.45060614     0.19100
H1712       H  0.83708364  0.53060753  0.51448277     0.19100
C1713       C  0.80418829  0.76758556  0.46399687    -0.06700
C1714       C  0.83037673  0.75464846  0.48392615    -0.17800
C1715       C  0.84861371  0.72603474  0.47380062     0.10500
C1716       C  0.84020885  0.70975680  0.44340959    -0.06600
C1717       C  0.81524101  0.72358651  0.42271765    -0.17900
C1718       C  0.79730696  0.75228317  0.43261525     0.10500
S1719       S  0.88124651  0.70916833  0.50058382    -0.32800
S1720       S  0.76431475  0.76696878  0.40511985    -0.32800
H1721       H  0.76398982  0.80017976  0.41722996     0.28500
H1722       H  0.88024612  0.73477198  0.52497396     0.28500
H1723       H  0.83492958  0.76557169  0.50842442     0.19100
H1724       H  0.80925934  0.71160600  0.39899598     0.19100
C1725       C  0.74181764  0.54199184  0.30010821    -0.06700
C1726       C  0.74412851  0.53452178  0.33444803    -0.17800
C1727       C  0.77272765  0.54393546  0.35322621     0.10500
C1728       C  0.79956682  0.56144485  0.33742946    -0.06600
C1729       C  0.79643361  0.57020230  0.30356964    -0.17900
C1730       C  0.76784780  0.56123028  0.28501242     0.10500
S1731       S  0.77465242  0.53050976  0.39645861    -0.32800
S1732       S  0.76657158  0.57421733  0.24157574    -0.32800
H1733       H  0.73121161  0.57387601  0.23874126     0.28500
H1734       H  0.80956820  0.52440215  0.39682702     0.28500
H1735       H  0.72486566  0.51906320  0.34607854     0.19100
H1736       H  0.81635386  0.58445494  0.29148521     0.19100
C1737       C  0.51007663  0.52860610  0.64898246    -0.06700
C1738       C  0.51306624  0.49884545  0.66744057    -0.17800
C1739       C  0.48595730  0.48600305  0.68601986     0.10500
C1740       C  0.45511313  0.50400934  0.68793166    -0.06600
C1741       C  0.45102892  0.53207927  0.66698393    -0.17900
C1742       C  0.47807903  0.54451722  0.64757406     0.10500
S1743       S  0.49294420  0.44715444  0.70830460    -0.32800
S1744       S  0.47100394  0.58263185  0.62421232    -0.32800
H1745       H  0.50198337  0.59770387  0.63270920     0.28500
H1746       H  0.45869612  0.43801305  0.71002747     0.28500
H1747       H  0.53703816  0.48578998  0.66797980     0.19100
H1748       H  0.42777164  0.54628775  0.66812775     0.19100
C1749       C  0.66982879  0.70757876  0.55499623    -0.06700
C1750       C  0.67152933  0.71024135  0.51992647    -0.17800
C1751       C  0.68543566  0.73868718  0.50438399     0.10500
C1752       C  0.69938260  0.76503070  0.52401505    -0.06600
C1753       C  0.69573013  0.76346597  0.55908919    -0.17900
C1754       C  0.68098987  0.73519741  0.57472078     0.10500
S1755       S  0.68568599  0.73947922  0.45905537    -0.32800
S1756       S  0.67933553  0.73510655  0.61997080    -0.32800
H1757       H  0.68200401  0.70013660  0.62402780     0.28500
H1758       H  0.68793484  0.77464980  0.45614409     0.28500
H1759       H  0.66183832  0.69001402  0.50446112     0.19100
H1760       H  0.70672543  0.78303771  0.57452004     0.19100
C1761       C  0.65578375  0.50242807  0.53101819    -0.06700
C1762       C  0.67163819  0.50430285  0.49965943    -0.17800
C1763       C  0.69034596  0.47724434  0.48703533     0.10500
C1764       C  0.69474733  0.44784009  0.50663645    -0.06600
C1765       C  0.67634707  0.44474739  0.53655443    -0.17900
C1766       C  0.65711150  0.47171380  0.54900689     0.10500
S1767       S  0.70981288  0.48242131  0.44642035    -0.32800
S1768       S  0.63797100  0.46660478  0.58975123    -0.32800
H1769       H  0.64685278  0.49869304  0.60179183     0.28500
H1770       H  0.71321149  0.44786697  0.43971203     0.28500
H1771       H  0.67017290  0.52735851  0.48525089     0.19100
H1772       H  0.67974280  0.42264381  0.55206793     0.19100
C1773       C  0.71590452  0.55111652  0.66264374    -0.06700
C1774       C  0.71512840  0.51643855  0.66879929    -0.17800
C1775       C  0.74173873  0.50018237  0.68521281     0.10500
C1776       C  0.76972509  0.51892351  0.69713963    -0.06600
C1777       C  0.77179630  0.55317116  0.68885587    -0.17900
C1778       C  0.74527153  0.56943188  0.67177821     0.10500
S1779       S  0.73813169  0.45533112  0.69094863    -0.32800
S1780       S  0.74930723  0.61402292  0.66494766    -0.32800
H1781       H  0.71518921  0.62149625  0.67086964     0.28500
H1782       H  0.77300329  0.44933950  0.69333904     0.28500
H1783       H  0.69345843  0.50178927  0.66077565     0.19100
H1784       H  0.79288154  0.56794661  0.69805711     0.19100
C1785       C  0.53513232  0.64537534  0.50776834    -0.06700
C1786       C  0.55349030  0.64574769  0.47754079    -0.17800
C1787       C  0.54325557  0.66553246  0.45018280     0.10500
C1788       C  0.51318980  0.68434754  0.45241951    -0.06600
C1789       C  0.49324841  0.68114745  0.48149972    -0.17900
C1790       C  0.50384931  0.66201614  0.50906090     0.10500
S1791       S  0.57156898  0.66885597  0.41498286    -0.32800
S1792       S  0.47695782  0.66071641  0.54552539    -0.32800
H1793       H  0.48775655  0.62904407  0.55683537     0.28500
H1794       H  0.57101700  0.70418316  0.41382999     0.28500
H1795       H  0.57753205  0.63285111  0.47624653     0.19100
H1796       H  0.47012563  0.69552173  0.48361687     0.19100
C1797       C  0.57541360  0.66647991  0.71038248    -0.06700
C1798       C  0.55459471  0.65179942  0.73500074    -0.17800
C1799       C  0.54312962  0.67036606  0.76295063     0.10500
C1800       C  0.55278001  0.70439780  0.76675003    -0.06600
C1801       C  0.57562022  0.71804544  0.74335975    -0.17900
C1802       C  0.58701614  0.69963928  0.71555928     0.10500
S1803       S  0.51347860  0.65049255  0.79077596    -0.32800
S1804       S  0.61562020  0.72032726  0.68708730    -0.32800
H1805       H  0.63331014  0.69118263  0.67775948     0.28500
H1806       H  0.52747549  0.66446427  0.82009582     0.28500
H1807       H  0.54589811  0.62617542  0.73161845     0.19100
H1808       H  0.58313394  0.74416350  0.74569034     0.19100
loop_ 
_geom_bond_atom_site_label_1 
_geom_bond_atom_site_label_2 
_geom_bond_distance 
_geom_bond_site_symmetry_2 
_ccdc_geom_bond_type 
O1           C17   1.285       .  A
O1           Zn7   2.074       .  S
C2           O18   1.276       .  A
C2           O15   1.284       .  A
C2         C1749   1.491       .  S
O3           C16   1.275       .  A
O3          Cd10   2.059       .  S
O4           C22   1.282       .  A
O4          Cd13   2.107       .  S
O5           C19   1.284       .  A
O5           Cd9   2.109       .  S
O6           C17   1.277       .  A
O6           Cd9   2.081       .  S
Zn7          O18   2.039       .  S
Zn7          O20   2.075       .  S
Zn7          O12   1.932       .  S
O8           C19   1.279       .  A
O8          Cd13   2.092       .  S
Cd9          O11   2.110       .  S
Cd9          O12   1.981       .  S
Cd10         O14   2.084       .  S
Cd10         O23   2.079       .  S
Cd10         O12   1.974       .  S
O11          C21   1.282       .  A
O12         Cd13   1.991       .  S
Cd13         O15   2.121       .  S
O14          C21   1.276       .  A
C16          O20   1.285       .  A
C16        C1785   1.482       .  S
C17        C1797   1.490       .  S
C19        C1773   1.491       .  S
C21        C1737   1.492       .  S
C22          O23   1.277       .  A
C22        C1761   1.486       .  S
O24          C40   1.284       .  A
O24         Zn30   2.064       .  S
C25          O41   1.275       .  A
C25          O38   1.282       .  A
C25        C1665   1.484       .  S
O26          C39   1.275       .  A
O26         Cd33   2.073       .  S
O27          C45   1.283       .  A
O27         Cd36   2.100       .  S
O28          C42   1.282       .  A
O28         Cd32   2.106       .  S
O29          C40   1.274       .  A
O29         Cd32   2.055       .  S
Zn30         O41   2.030       .  S
Zn30         O43   2.062       .  S
Zn30         O35   1.924       .  S
O31          C42   1.274       .  A
O31         Cd36   2.071       .  S
Cd32         O34   2.099       .  S
Cd32         O35   1.981       .  S
Cd33         O37   2.092       .  S
Cd33         O46   2.075       .  S
Cd33         O35   1.969       .  S
O34          C44   1.281       .  A
O35         Cd36   1.982       .  S
Cd36         O38   2.109       .  S
O37          C44   1.278       .  A
C39          O43   1.282       .  A
C39        C1689   1.484   1_655  S
C40        C1728   1.481       .  S
C42        C1716   1.479       .  S
C44        C1704   1.490       .  S
C45          O46   1.277       .  A
C45        C1677   1.484       .  S
O47          C63   1.285       .  A
O47         Zn53   2.086       .  S
C48          O64   1.277       .  A
C48          O61   1.283       .  A
C48        C1641   1.495       .  S
O49          C62   1.277       .  A
O49         Cd56   2.073       .  S
O50          C68   1.282       .  A
O50         Cd59   2.111       .  S
O51          C65   1.287       .  A
O51         Cd55   2.124       .  S
O52          C63   1.278       .  A
O52         Cd55   2.079       .  S
Zn53         O64   2.018       .  S
Zn53         O66   2.069       .  S
Zn53         O58   1.926       .  S
O54          C65   1.274       .  A
O54         Cd59   2.064       .  S
Cd55         O57   2.109       .  S
Cd55         O58   1.976       .  S
Cd56         O60   2.059       .  S
Cd56         O69   2.084       .  S
Cd56         O58   1.972       .  S
O57          C67   1.284       .  A
O58         Cd59   1.973       .  S
Cd59         O61   2.100       .  S
O60          C67   1.276       .  A
C62          O66   1.282       .  A
C62        C1656   1.498       .  S
C63        C1617   1.509       .  S
C65        C1593   1.508       .  S
C67        C1608   1.488       .  S
C68          O69   1.277       .  A
C68        C1629   1.499       .  S
C70         C468   1.489       .  S
C70          N71   1.374       .  A
C70          N75   1.368       .  A
N71          C72   1.368       .  A
C72        C1581   1.488       .  S
C72          N73   1.349       .  A
N73          C74   1.347       .  A
C74        C1644   1.478       .  S
C74          N75   1.362       .  A
C76         C609   1.497       .  S
C76          N77   1.373       .  A
C76          N81   1.373       .  A
N77          C78   1.368       .  A
C78        C1692   1.489       .  S
C78          N79   1.349       .  A
N79          C80   1.347       .  A
C80        C1620   1.490       .  S
C80          N81   1.368       .  A
O82          C98   1.284       .  A
O82         Zn88   2.063       .  S
C83          O99   1.275       .  A
C83          O96   1.284       .  A
C83        C1524   1.490       .  S
O84          C97   1.274       .  A
O84         Cd91   2.066       .  S
O85         C103   1.282       .  A
O85         Cd94   2.104       .  S
O86         C100   1.283       .  A
O86         Cd90   2.114       .  S
O87          C98   1.276       .  A
O87         Cd90   2.073       .  S
Zn88         O99   2.032       .  S
Zn88        O101   2.072       .  S
Zn88         O93   1.929       .  S
O89         C100   1.278       .  A
O89         Cd94   2.087       .  S
Cd90         O92   2.108       .  S
Cd90         O93   1.984       .  S
Cd91         O95   2.090       .  S
Cd91        O104   2.076       .  S
Cd91         O93   1.974       .  S
O92         C102   1.282       .  A
O93         Cd94   1.985       .  S
Cd94         O96   2.124       .  S
O95         C102   1.278       .  A
C97         O101   1.283       .  A
C97        C1533   1.484       .  S
C98        C1569   1.486       .  S
C100       C1545   1.485       .  S
C102       C1557   1.492       .  S
C103        O104   1.277       .  A
C103       C1584   1.485       .  S
O105        C121   1.286       .  A
O105       Zn111   2.089       .  S
C106        O122   1.279       .  A
C106        O119   1.282       .  A
C106       C1500   1.498       .  S
O107        C120   1.276       .  A
O107       Cd114   2.067       .  S
O108        C126   1.280       .  A
O108       Cd117   2.100       .  S
O109        C123   1.286       .  A
O109       Cd113   2.117       .  S
O110        C121   1.276       .  A
O110       Cd113   2.067       .  S
Zn111       O122   2.032       .  S
Zn111       O124   2.069       .  S
Zn111       O116   1.924       .  S
O112        C123   1.273       .  A
O112       Cd117   2.063       .  S
Cd113       O115   2.105       .  S
Cd113       O116   1.972       .  S
Cd114       O118   2.068       .  S
Cd114       O127   2.084       .  S
Cd114       O116   1.970       .  S
O115        C125   1.283       .  A
O116       Cd117   1.968       .  S
Cd117       O119   2.097       .  S
O118        C125   1.275       .  A
C120        O124   1.283       .  A
C120       C1512   1.496       .  S
C121       C1473   1.505       .  S
C123       C1452   1.505   1_545  S
C125       C1461   1.496       .  S
C126        O127   1.277       .  A
C126       C1485   1.493       .  S
C128        C627   1.501       .  S
C128        N129   1.374       .  A
C128        N133   1.374       .  A
N129        C130   1.368       .  A
C130       C1536   1.488       .  S
C130        N131   1.347       .  A
N131        C132   1.346       .  A
C132       C1476   1.487       .  S
C132        N133   1.369       .  A
C134        C375   1.494       .  S
C134        N135   1.371       .  A
C134        N139   1.373       .  A
N135        C136   1.364       .  A
C136       C1509   1.479       .  S
C136        N137   1.345       .  A
N137        C138   1.348       .  A
C138       C1572   1.488       .  S
C138        N139   1.369       .  A
C140        C497   1.491       .  S
C140        N141   1.370       .  A
C140        N145   1.367   1_565  A
N141        C142   1.366       .  A
C142       C1437   1.490       .  S
C142        N143   1.352   1_565  A
N143        C144   1.352       .  A
C144       C1497   1.484       .  S
C144        N145   1.365       .  A
C146       C1413   1.491       .  S
C146        N147   1.350   1_565  A
C146        N151   1.367       .  A
N147        C148   1.349       .  A
C148       C1425   1.491       .  S
C148        N149   1.369       .  A
N149        C150   1.373       .  A
C150        C591   1.498   1_545  S
C150        N151   1.372   1_545  A
C152        C615   1.489       .  S
C152        N153   1.370   1_556  A
C152        N157   1.370       .  A
N153        C154   1.364       .  A
C154       C1401   1.477       .  S
C154        N155   1.348   1_554  A
N155        C156   1.349       .  A
C156       C1464   1.476       .  S
C156        N157   1.365       .  A
C158        C597   1.492       .  S
C158        N159   1.370   1_556  A
C158        N163   1.371       .  A
N159        C160   1.365       .  A
C160       C1392   1.487       .  S
C160        N161   1.349   1_554  A
N161        C162   1.350       .  A
C162       C1449   1.489       .  S
C162        N163   1.367       .  A
C164       C1365   1.477       .  S
C164        N165   1.365       .  A
C164        N169   1.347       .  A
N165        C166   1.370       .  A
C166        C621   1.495       .  S
C166        N167   1.373   1_565  A
N167        C168   1.369       .  A
C168       C1377   1.483       .  S
C168        N169   1.348   1_545  A
C170        C579   1.498       .  S
C170        N171   1.375   1_455  A
C170        N175   1.372       .  A
N171        C172   1.370       .  A
C172       C1596   1.492       .  S
C172        N173   1.349   1_655  A
N173        C174   1.347       .  A
C174       C1353   1.486       .  S
C174        N175   1.365       .  A
C176        C573   1.491       .  S
C176        N177   1.372       .  A
C176        N181   1.370   1_455  A
N177        C178   1.366       .  A
C178       C1344   1.477       .  S
C178        N179   1.347       .  A
N179        C180   1.347   1_455  A
C180       C1605   1.474       .  S
C180        N181   1.364       .  A
O182        C198   1.288       .  A
O182       Zn188   2.096       .  S
C183        O199   1.280       .  A
C183        O196   1.282       .  A
C183       C1389   1.501   1_545  S
O184        C197   1.275       .  A
O184       Cd191   2.071       .  S
O185        C203   1.281       .  A
O185       Cd194   2.102       .  S
O186        C200   1.283       .  A
O186       Cd190   2.109       .  S
O187        C198   1.273       .  A
O187       Cd190   2.061       .  S
Zn188       O199   2.041       .  S
Zn188       O201   2.078       .  S
Zn188       O193   1.926       .  S
O189        C200   1.276       .  A
O189       Cd194   2.071       .  S
Cd190       O192   2.097       .  S
Cd190       O193   1.973       .  S
Cd191       O195   2.074       .  S
Cd191       O204   2.078       .  S
Cd191       O193   1.972       .  S
O192        C202   1.281       .  A
O193       Cd194   1.975       .  S
Cd194       O196   2.097       .  S
O195        C202   1.276       .  A
C197        O201   1.285       .  A
C197       C1380   1.504       .  S
C198       C1428   1.510       .  S
C200       C1356   1.499       .  S
C202       C1341   1.494       .  S
C203        O204   1.277       .  A
C203       C1404   1.492       .  S
O205        C221   1.285       .  A
O205       Zn211   2.066       .  S
C206        O222   1.276       .  A
C206        O219   1.285       .  A
C206       C1440   1.500       .  S
O207        C220   1.276       .  A
O207       Cd214   2.072       .  S
O208        C226   1.282       .  A
O208       Cd217   2.109       .  S
O209        C223   1.287       .  A
O209       Cd213   2.130       .  S
O210        C221   1.276       .  A
O210       Cd213   2.073       .  S
Zn211       O222   2.011       .  S
Zn211       O224   2.081       .  S
Zn211       O216   1.927       .  S
O212        C223   1.276       .  A
O212       Cd217   2.079       .  S
Cd213       O215   2.117       .  S
Cd213       O216   1.989       .  S
Cd214       O218   2.063       .  S
Cd214       O227   2.068       .  S
Cd214       O216   1.970       .  S
O215        C225   1.285       .  A
O216       Cd217   1.980       .  S
Cd217       O219   2.119       .  S
O218        C225   1.274       .  A
C220        O224   1.282       .  A
C220       C1317   1.501       .  S
C221       C1305   1.504       .  S
C223       C1293   1.512   1_565  S
C225       C1329   1.503       .  S
C226        O227   1.275       .  A
C226       C1284   1.494       .  S
O228        C244   1.283       .  A
O228       Zn234   2.068       .  S
C229        O245   1.274       .  A
C229        O242   1.281       .  A
C229       C1269   1.484       .  S
O230        C243   1.278       .  A
O230       Cd237   2.086       .  S
O231        C249   1.280       .  A
O231       Cd240   2.087       .  S
O232        C246   1.282       .  A
O232       Cd236   2.102       .  S
O233        C244   1.275       .  A
O233       Cd236   2.072       .  S
Zn234       O245   2.019       .  S
Zn234       O247   2.066       .  S
Zn234       O239   1.932       .  S
O235        C246   1.276       .  A
O235       Cd240   2.075       .  S
Cd236       O238   2.104       .  S
Cd236       O239   1.984       .  S
Cd237       O241   2.088       .  S
Cd237       O250   2.098       .  S
Cd237       O239   1.977       .  S
O238        C248   1.282       .  A
O239       Cd240   1.979       .  S
Cd240       O242   2.103       .  S
O241        C248   1.278       .  A
C243        O247   1.283       .  A
C243       C1245   1.490       .  S
C244       C1260   1.489       .  S
C246       C1368   1.478       .  S
C248       C1416   1.486       .  S
C249        O250   1.279       .  A
C249       C1233   1.490       .  S
C251        C549   1.496       .  S
C251        N252   1.370   1_455  A
C251        N256   1.376       .  A
N252        C253   1.364       .  A
C253       C1680   1.486       .  S
C253        N254   1.348   1_655  A
N254        C255   1.347       .  A
C255       C1248   1.491       .  S
C255        N256   1.370       .  A
C257        C633   1.496       .  S
C257        N258   1.373       .  A
C257        N262   1.373       .  A
N258        C259   1.368       .  A
C259       C1296   1.492       .  S
C259        N260   1.349       .  A
N260        C261   1.351       .  A
C261       C1236   1.497       .  S
C261        N262   1.366       .  A
C263        C439   1.501       .  S
C263        N264   1.375       .  A
C263        N268   1.374       .  A
N264        C265   1.368       .  A
C265       C1272   1.482       .  S
C265        N266   1.345       .  A
N266        C267   1.345       .  A
C267       C1332   1.480       .  S
C267        N268   1.368       .  A
C269        C639   1.499       .  S
C269        N270   1.372   1_455  A
C269        N274   1.374       .  A
N270        C271   1.367       .  A
C271       C1668   1.480       .  S
C271        N272   1.347   1_655  A
N272        C273   1.349       .  A
C273       C1257   1.486       .  S
C273        N274   1.369       .  A
C275        C653   1.497       .  S
C275        N276   1.372       .  A
C275        N280   1.372   1_565  A
N276        C277   1.368       .  A
C277       C1281   1.479       .  S
C277        N278   1.348       .  A
N278        C279   1.347   1_565  A
C279       C1488   1.481       .  S
C279        N280   1.367       .  A
C281        C645   1.506       .  S
C281        N282   1.374       .  A
C281        N286   1.375   1_554  A
N282        C283   1.369       .  A
C283       C1632   1.484       .  S
C283        N284   1.347       .  A
N284        C285   1.348   1_554  A
C285       C1521   1.489       .  S
C285        N286   1.371       .  A
C287        C410   1.504       .  S
C287        N288   1.373       .  A
C287        N292   1.375       .  A
N288        C289   1.368       .  A
C289       C1320   1.484       .  S
C289        N290   1.346       .  A
N290        C291   1.349       .  A
C291       C1800   1.491       .  S
C291        N292   1.371       .  A
C293        C585   1.492       .  S
C293        N294   1.373       .  A
C293        N298   1.371       .  A
N294        C295   1.368       .  A
C295       C1308   1.490       .  S
C295        N296   1.347       .  A
N296        C297   1.346       .  A
C297       C1788   1.481       .  S
C297        N298   1.365       .  A
C299        C567   1.501       .  S
C299        N300   1.376       .  A
C299        N304   1.371       .  A
N300        C301   1.371       .  A
C301       C1752   1.490       .  S
C301        N302   1.349       .  A
N302        C303   1.346       .  A
C303       C1713   1.478       .  S
C303        N304   1.365       .  A
C305        C561   1.505       .  S
C305        N306   1.378       .  A
C305        N310   1.375       .  A
N306        C307   1.371       .  A
C307       C1740   1.495       .  S
C307        N308   1.348       .  A
N308        C309   1.347       .  A
C309       C1560   1.493       .  S
C309        N310   1.368       .  A
C311        C555   1.498       .  S
C311        N312   1.373       .  A
C311        N316   1.372       .  A
N312        C313   1.367       .  A
C313       C1776   1.489       .  S
C313        N314   1.350       .  A
N314        C315   1.349       .  A
C315       C1548   1.482       .  S
C315        N316   1.368       .  A
C317        C603   1.500       .  S
C317        N318   1.374       .  A
C317        N322   1.375       .  A
N318        C319   1.366       .  A
C319       C1764   1.487       .  S
C319        N320   1.347       .  A
N320        C321   1.348       .  A
C321       C1701   1.490       .  S
C321        N322   1.369       .  A
C323        C404   1.494       .  S
C323        N324   1.373       .  A
C323        N328   1.372       .  A
N324        C325   1.368       .  A
C325       C1725   1.480       .  S
C325        N326   1.347       .  A
N326        C327   1.344       .  A
C327       C1653   1.479       .  S
C327        N328   1.365       .  A
O329        C345   1.277       .  A
O329       Zn335   2.038       .  S
C330        O346   1.285       .  A
C330        O343   1.275       .  A
C330       C1200   1.491       .  S
O331        C344   1.276       .  A
O331       Cd338   2.066       .  S
O332        C350   1.282       .  A
O332       Cd341   2.107       .  S
O333        C347   1.277       .  A
O333       Cd337   2.070       .  S
O334        C345   1.282       .  A
O334       Cd337   2.108       .  S
Zn335       O346   2.079       .  S
Zn335       O348   2.061       .  S
Zn335       O340   1.924       .  S
O336        C347   1.284       .  A
O336       Cd341   2.101       .  S
Cd337       O339   2.093       .  S
Cd337       O340   1.979       .  S
Cd338       O342   2.095       .  S
Cd338       O351   2.080       .  S
Cd338       O340   1.967       .  S
O339        C349   1.280       .  A
O340       Cd341   1.978       .  S
Cd341       O343   2.071       .  S
O342        C349   1.278       .  A
C344        O348   1.283       .  A
C344       C1224   1.480       .  S
C345       C1173   1.488       .  S
C347       C1212   1.478       .  S
C349       C1185   1.488       .  S
C350        O351   1.276       .  A
C350       C1164   1.486       .  S
O352        C368   1.276       .  A
O352       Zn358   2.033       .  S
C353        O369   1.285       .  A
C353        O366   1.275       .  A
C353       C1101   1.492       .  S
O354        C367   1.277       .  A
O354       Cd361   2.081       .  S
O355        C373   1.281       .  A
O355       Cd364   2.101       .  S
O356        C370   1.276       .  A
O356       Cd360   2.083       .  S
O357        C368   1.282       .  A
O357       Cd360   2.110       .  S
Zn358       O369   2.076       .  S
Zn358       O371   2.062       .  S
Zn358       O363   1.934       .  S
O359        C370   1.282       .  A
O359       Cd364   2.103       .  S
Cd360       O362   2.094       .  S
Cd360       O363   1.992       .  S
Cd361       O365   2.087       .  S
Cd361       O374   2.092       .  S
Cd361       O363   1.976       .  S
O362        C372   1.281       .  A
O363       Cd364   1.984       .  S
Cd364       O366   2.065       .  S
O365        C372   1.278       .  A
C367        O371   1.282       .  A
C367       C1092   1.483       .  S
C368       C1125   1.488       .  S
C370       C1113   1.487       .  S
C372       C1137   1.484       .  S
C373        O374   1.278       .  A
C373       C1149   1.491       .  S
C375        N376   1.373       .  A
C375        N380   1.371       .  A
N376        C377   1.369       .  A
C377       C1077   1.491       .  S
C377        N378   1.350       .  A
N378        C379   1.350       .  A
C379       C1140   1.486       .  S
C379        N380   1.364       .  A
O381        C397   1.276       .  A
O381       Zn387   2.034       .  S
C382        O398   1.282       .  A
C382        O395   1.275       .  A
C382       C1053   1.485       .  S
O383        C396   1.278       .  A
O383       Cd390   2.095       .  S
O384        C402   1.282       .  A
O384       Cd393   2.108       .  S
O385        C399   1.278       .  A
O385       Cd389   2.092       .  S
O386        C397   1.283       .  A
O386       Cd389   2.111       .  S
Zn387       O398   2.064       .  S
Zn387       O400   2.053       .  S
Zn387       O392   1.930       .  S
O388        C399   1.283       .  A
O388       Cd393   2.107       .  S
Cd389       O391   2.099       .  S
Cd389       O392   1.985       .  S
Cd390       O394   2.100       .  S
Cd390       O403   2.102       .  S
Cd390       O392   1.980       .  S
O391        C401   1.281       .  A
O392       Cd393   1.984       .  S
Cd393       O395   2.070       .  S
O394        C401   1.280       .  A
C396        O400   1.280       .  A
C396       C1029   1.488       .  S
C397       C1065   1.485       .  S
C399       C1041   1.493       .  S
C401       C1080   1.490       .  S
C402        O403   1.280       .  A
C402       C1017   1.492       .  S
C404        N405   1.374       .  A
C404        N409   1.369       .  A
N405        C406   1.370       .  A
C406       C1032   1.491       .  S
C406        N407   1.351       .  A
N407        C408   1.347       .  A
C408       C1005   1.480       .  S
C408        N409   1.363       .  A
C410        N411   1.373       .  A
C410        N415   1.376       .  A
N411        C412   1.368       .  A
C412        C993   1.482       .  S
C412        N413   1.347       .  A
N413        C414   1.349       .  A
C414        C981   1.496       .  S
C414        N415   1.371       .  A
O416        C432   1.276       .  A
O416       Zn422   2.028       .  S
C417        O433   1.287       .  A
C417        O430   1.277       .  A
C417       C1008   1.496       .  S
O418        C431   1.274       .  A
O418       Cd425   2.054       .  S
O419        C437   1.284       .  A
O419       Cd428   2.116       .  S
O420        C434   1.276       .  A
O420       Cd424   2.059       .  S
O421        C432   1.285       .  A
O421       Cd424   2.103       .  S
Zn422       O433   2.086       .  S
Zn422       O435   2.075       .  S
Zn422       O427   1.919       .  S
O423        C434   1.286       .  A
O423       Cd428   2.127       .  S
Cd424       O426   2.115       .  S
Cd424       O427   1.966       .  S
Cd425       O429   2.061       .  S
Cd425       O438   2.060       .  S
Cd425       O427   1.955       .  S
O426        C436   1.283       .  A
O427       Cd428   1.969       .  S
Cd428       O430   2.058       .  S
O429        C436   1.275       .  A
C431        O435   1.284       .  A
C431        C933   1.493       .  S
C432        C945   1.504       .  S
C434        C996   1.496       .  S
C436        C960   1.496       .  S
C437        O438   1.274       .  A
C437        C972   1.491       .  S
C439        N440   1.373       .  A
C439        N444   1.376       .  A
N440        C441   1.367       .  A
C441       C1161   1.487       .  S
C441        N442   1.348       .  A
N442        C443   1.349       .  A
C443       C1020   1.496       .  S
C443        N444   1.370       .  A
O445        C461   1.275       .  A
O445       Zn451   2.032       .  S
C446        O462   1.283       .  A
C446        O459   1.274       .  A
C446        C924   1.481       .  S
O447        C460   1.277       .  A
O447       Cd454   2.082       .  S
O448        C466   1.281       .  A
O448       Cd457   2.108       .  S
O449        C463   1.274       .  A
O449       Cd453   2.067       .  S
O450        C461   1.283       .  A
O450       Cd453   2.112       .  S
Zn451       O462   2.060       .  S
Zn451       O464   2.067       .  S
Zn451       O456   1.929       .  S
O452        C463   1.283       .  A
O452       Cd457   2.106       .  S
Cd453       O455   2.096       .  S
Cd453       O456   1.989       .  S
Cd454       O458   2.089       .  S
Cd454       O467   2.094       .  S
Cd454       O456   1.973       .  S
O455        C465   1.281       .  A
O456       Cd457   1.991       .  S
Cd457       O459   2.059       .  S
O458        C465   1.279       .  A
C460        O464   1.283       .  A
C460        C897   1.492       .  S
C461        C885   1.492       .  S
C463        C912   1.483       .  S
C465        C876   1.484       .  S
C466        O467   1.278       .  A
C466        C984   1.491       .  S
C468        N469   1.372   1_554  A
C468        N473   1.370       .  A
N469        C470   1.365       .  A
C470        C861   1.478       .  S
C470        N471   1.345   1_556  A
N471        C472   1.348       .  A
C472        C921   1.477       .  S
C472        N473   1.365       .  A
O474        C490   1.274       .  A
O474       Zn480   2.019       .  S
C475        O491   1.282       .  A
C475        O488   1.276       .  A
C475        C849   1.478       .  S
O476        C489   1.277       .  A
O476       Cd483   2.083       .  S
O477        C495   1.282       .  A
O477       Cd486   2.109       .  S
O478        C492   1.278       .  A
O478       Cd482   2.090       .  S
O479        C490   1.283       .  A
O479       Cd482   2.108       .  S
Zn480       O491   2.059       .  S
Zn480       O493   2.066       .  S
Zn480       O485   1.924       .  S
O481        C492   1.285       .  A
O481       Cd486   2.115       .  S
Cd482       O484   2.109       .  S
Cd482       O485   1.983       .  S
Cd483       O487   2.087       .  S
Cd483       O496   2.089       .  S
Cd483       O485   1.970       .  S
O484        C494   1.282       .  A
O485       Cd486   1.976       .  S
Cd486       O488   2.073       .  S
O487        C494   1.278       .  A
C489        O493   1.282       .  A
C489        C816   1.486   1_655  S
C490        C789   1.482       .  S
C492        C825   1.492       .  S
C494        C804   1.486       .  S
C495        O496   1.278       .  A
C495        C837   1.489       .  S
C497        N498   1.368   1_565  A
C497        N502   1.372       .  A
N498        C499   1.364       .  A
C499        C852   1.476       .  S
C499        N500   1.349   1_545  A
N500        C501   1.349       .  A
C501        C780   1.481       .  S
C501        N502   1.367       .  A
O503        C519   1.279       .  A
O503       Zn509   2.030       .  S
C504        O520   1.284       .  A
C504        O517   1.275       .  A
C504        C729   1.504   1_655  S
O505        C518   1.276       .  A
O505       Cd512   2.076       .  S
O506        C524   1.282       .  A
O506       Cd515   2.108       .  S
O507        C521   1.279       .  A
O507       Cd511   2.088       .  S
O508        C519   1.286       .  A
O508       Cd511   2.120       .  S
Zn509       O520   2.080       .  S
Zn509       O522   2.069       .  S
Zn509       O514   1.926       .  S
O510        C521   1.283       .  A
O510       Cd515   2.110       .  S
Cd511       O513   2.121       .  S
Cd511       O514   1.978       .  S
Cd512       O516   2.069       .  S
Cd512       O525   2.068       .  S
Cd512       O514   1.976       .  S
O513        C523   1.284       .  A
O514       Cd515   1.980       .  S
Cd515       O517   2.059       .  S
O516        C523   1.276       .  A
C518        O522   1.282       .  A
C518        C777   1.497       .  S
C519        C741   1.507       .  S
C521        C753   1.505   1_556  S
C523        C864   1.493       .  S
C524        O525   1.276       .  A
C524        C768   1.491       .  S
O526        C542   1.276       .  A
O526       Zn532   2.032       .  S
C527        O543   1.284       .  A
C527        O540   1.277       .  A
C527        C696   1.493       .  S
O528        C541   1.281       .  A
O528       Cd535   2.100       .  S
O529        C547   1.280       .  A
O529       Cd538   2.093       .  S
O530        C544   1.273       .  A
O530       Cd534   2.056       .  S
O531        C542   1.281       .  A
O531       Cd534   2.097       .  S
Zn532       O543   2.081       .  S
Zn532       O545   2.054       .  S
Zn532       O537   1.937       .  S
O533        C544   1.282       .  A
O533       Cd538   2.105       .  S
Cd534       O536   2.090       .  S
Cd534       O537   1.984       .  S
Cd535       O539   2.121       .  S
Cd535       O548   2.088       .  S
Cd535       O537   1.981       .  S
O536        C546   1.280       .  A
O537       Cd538   1.990       .  S
Cd538       O540   2.086       .  S
O539        C546   1.281       .  A
C541        O545   1.283       .  A
C541        C705   1.494       .  S
C542        C720   1.486       .  S
C544        C657   1.473       .  S
C546        C681   1.501       .  S
C547        O548   1.278       .  A
C547        C672   1.482       .  S
C549        N550   1.374       .  A
C549        N554   1.371   1_455  A
N550        C551   1.368       .  A
C551        C717   1.484       .  S
C551        N552   1.348       .  A
N552        C553   1.346   1_455  A
C553        C765   1.476       .  S
C553        N554   1.366       .  A
C555        N556   1.376       .  A
C555        N560   1.370       .  A
N556        C557   1.372       .  A
C557        C708   1.499       .  S
C557        N558   1.350       .  A
N558        C559   1.348       .  A
C559       C1221   1.485       .  S
C559        N560   1.363       .  A
C561        N562   1.376       .  A
C561        N566   1.376       .  A
N562        C563   1.369       .  A
C563        C693   1.488       .  S
C563        N564   1.347       .  A
N564        C565   1.348       .  A
C565       C1197   1.488       .  S
C565        N566   1.370       .  A
C567        N568   1.375       .  A
C567        N572   1.375       .  A
N568        C569   1.368       .  A
C569        C840   1.490       .  S
C569        N570   1.347       .  A
N570        C571   1.349       .  A
C571       C1152   1.495       .  S
C571        N572   1.369       .  A
C573        N574   1.369       .  A
C573        N578   1.370   1_455  A
N574        C575   1.365       .  A
C575       C1188   1.491       .  S
C575        N576   1.353       .  A
N576        C577   1.351   1_455  A
C577        C801   1.488       .  S
C577        N578   1.366       .  A
C579        N580   1.372   1_455  A
C579        N584   1.376       .  A
N580        C581   1.364       .  A
C581        C792   1.477       .  S
C581        N582   1.345   1_655  A
N582        C583   1.347       .  A
C583       C1176   1.485       .  S
C583        N584   1.370       .  A
C585        N586   1.372       .  A
C585        N590   1.372       .  A
N586        C587   1.366       .  A
C587        C909   1.481       .  S
C587        N588   1.347       .  A
N588        C589   1.345       .  A
C589        C969   1.476       .  S
C589        N590   1.365       .  A
C591        N592   1.373   1_565  A
C591        N596   1.373       .  A
N592        C593   1.368       .  A
C593       C1104   1.490       .  S
C593        N594   1.349   1_545  A
N594        C595   1.347       .  A
C595        C888   1.487       .  S
C595        N596   1.368       .  A
C597        N598   1.372   1_556  A
C597        N602   1.370       .  A
N598        C599   1.367       .  A
C599        C957   1.478       .  S
C599        N600   1.347   1_554  A
N600        C601   1.347       .  A
C601        C660   1.473       .  S
C601        N602   1.364       .  A
C603        N604   1.376       .  A
C603        N608   1.373       .  A
N604        C605   1.370       .  A
C605        C828   1.493       .  S
C605        N606   1.349       .  A
N606        C607   1.347       .  A
C607       C1116   1.485       .  S
C607        N608   1.365       .  A
C609        N610   1.374       .  A
C609        N614   1.372       .  A
N610        C611   1.368       .  A
C611       C1056   1.483       .  S
C611        N612   1.347       .  A
N612        C613   1.346       .  A
C613        C936   1.477       .  S
C613        N614   1.366       .  A
C615        N616   1.372   1_556  A
C615        N620   1.370       .  A
N616        C617   1.366       .  A
C617        C948   1.488       .  S
C617        N618   1.350   1_554  A
N618        C619   1.349       .  A
C619        C669   1.486       .  S
C619        N620   1.364       .  A
C621        N622   1.372       .  A
C621        N626   1.372       .  A
N622        C623   1.367       .  A
C623        C873   1.486       .  S
C623        N624   1.350       .  A
N624        C625   1.349       .  A
C625       C1089   1.484   1_565  S
C625        N626   1.366       .  A
C627        N628   1.375       .  A
C627        N632   1.373       .  A
N628        C629   1.369       .  A
C629       C1128   1.488       .  S
C629        N630   1.348       .  A
N630        C631   1.348       .  A
C631       C1068   1.483       .  S
C631        N632   1.367       .  A
C633        N634   1.370       .  A
C633        N638   1.375       .  A
N634        C635   1.363       .  A
C635       C1209   1.477       .  S
C635        N636   1.348       .  A
N636        C637   1.349       .  A
C637       C1044   1.491       .  S
C637        N638   1.370       .  A
C639        N640   1.376       .  A
C639        N644   1.370       .  A
N640        C641   1.371       .  A
C641        C684   1.506       .  S
C641        N642   1.352       .  A
N642        C643   1.350       .  A
C643        C756   1.492       .  S
C643        N644   1.365       .  A
C645        N646   1.375   1_554  A
C645        N650   1.376       .  A
N646        C647   1.370       .  A
C647        C744   1.491       .  S
C647        N648   1.347   1_556  A
N648        C649   1.348       .  A
C649        C900   1.492       .  S
C649        N650   1.370       .  A
C651        C732   1.490       .  S
C651        N652   1.367       .  A
C651        N656   1.348       .  A
N652        C653   1.372       .  A
C653        N654   1.374       .  A
N654        C655   1.368       .  A
C655        C813   1.487   1_565  S
C655        N656   1.347       .  A
C657        C658   1.399       .  A
C657        C662   1.417       .  A
C658        C659   1.398       .  A
C658        H667   1.083       .  S
C659        C660   1.412       .  A
C659        S663   1.803       .  S
C660        C661   1.405       .  A
C661        C662   1.407       .  A
C661        H668   1.083   1_556  S
C662        S664   1.808       .  S
S663        H666   1.406       .  S
S664        H665   1.404       .  S
C669        C670   1.408   1_556  A
C669        C674   1.413       .  A
C670        C671   1.401       .  A
C670        H679   1.084       .  S
C671        C672   1.410   1_554  A
C671        S675   1.803       .  S
C672        C673   1.407       .  A
C673        C674   1.406       .  A
C673        H680   1.084       .  S
C674        S676   1.799       .  S
S675        H678   1.406       .  S
S676        H677   1.406       .  S
C681        C682   1.413   1_556  A
C681        C686   1.413       .  A
C682        C683   1.417       .  A
C682        H691   1.082       .  S
C683        C684   1.417       .  A
C683        S687   1.797       .  S
C684        C685   1.411       .  A
C685        C686   1.401   1_554  A
C685        H692   1.083   1_455  S
C686        S688   1.804   1_455  S
S687        H690   1.407       .  S
S688        H689   1.407       .  S
C693        C694   1.405       .  A
C693        C698   1.417       .  A
C694        C695   1.412       .  A
C694        H703   1.083       .  S
C695        C696   1.419       .  A
C695        S699   1.804       .  S
C696        C697   1.402       .  A
C697        C698   1.404       .  A
C697        H704   1.083       .  S
C698        S700   1.804       .  S
S699        H702   1.406       .  S
S700        H701   1.407       .  S
C705        C706   1.410   1_455  A
C705        C710   1.412       .  A
C706        C707   1.412       .  A
C706        H715   1.084       .  S
C707        C708   1.415       .  A
C707        S711   1.799       .  S
C708        C709   1.411       .  A
C709        C710   1.402   1_655  A
C709        H716   1.084       .  S
C710        S712   1.804       .  S
S711        H714   1.407       .  S
S712        H713   1.407       .  S
C717        C718   1.405       .  A
C717        C722   1.416       .  A
C718        C719   1.411       .  A
C718        H727   1.083       .  S
C719        C720   1.420       .  A
C719        S723   1.805       .  S
C720        C721   1.400       .  A
C721        C722   1.399       .  A
C721        H728   1.083       .  S
C722        S724   1.806       .  S
S723        H726   1.407       .  S
S724        H725   1.407       .  S
C729        C730   1.416       .  A
C729        C734   1.416   1_455  A
C730        C731   1.406       .  A
C730        H739   1.083       .  S
C731        C732   1.410       .  A
C731        S735   1.801       .  S
C732        C733   1.409       .  A
C733        C734   1.402   1_455  A
C733        H740   1.084   1_565  S
C734        S736   1.801   1_565  S
S735        H738   1.407       .  S
S736        H737   1.407       .  S
C741        C742   1.415   1_565  A
C741        C746   1.417   1_556  A
C742        C743   1.408       .  A
C742        H751   1.083       .  S
C743        C744   1.411       .  A
C743        S747   1.801       .  S
C744        C745   1.409   1_556  A
C745        C746   1.405   1_545  A
C745        H752   1.084       .  S
C746        S748   1.802       .  S
S747        H750   1.406       .  S
S748        H749   1.407       .  S
C753        C754   1.413       .  A
C753        C758   1.418   1_655  A
C754        C755   1.407       .  A
C754        H763   1.082       .  S
C755        C756   1.412   1_655  A
C755        S759   1.799       .  S
C756        C757   1.408       .  A
C757        C758   1.404       .  A
C757        H764   1.083       .  S
C758        S760   1.802   1_554  S
S759        H762   1.407       .  S
S760        H761   1.408       .  S
C765        C766   1.404       .  A
C765        C770   1.412       .  A
C766        C767   1.404       .  A
C766        H775   1.084   1_655  S
C767        C768   1.417       .  A
C767        S771   1.803   1_655  S
C768        C769   1.407       .  A
C769        C770   1.404       .  A
C769        H776   1.084       .  S
C770        S772   1.803       .  S
S771        H774   1.407   1_455  S
S772        H773   1.405       .  S
C777        C778   1.408       .  A
C777        C782   1.418       .  A
C778        C779   1.406       .  A
C778        H787   1.083       .  S
C779        C780   1.412       .  A
C779        S783   1.802       .  S
C780        C781   1.404       .  A
C781        C782   1.405       .  A
C781        H788   1.084   1_565  S
C782        S784   1.802       .  S
S783        H786   1.405       .  S
S784        H785   1.407       .  S
C789        C790   1.400       .  A
C789        C794   1.414       .  A
C790        C791   1.399       .  A
C790        H799   1.084   1_655  S
C791        C792   1.414       .  A
C791        S795   1.804   1_655  S
C792        C793   1.404       .  A
C793        C794   1.411       .  A
C793        H800   1.083       .  S
C794        S796   1.806       .  S
S795        H798   1.407       .  S
S796        H797   1.407       .  S
C801        C802   1.409   1_655  A
C801        C806   1.414       .  A
C802        C803   1.405       .  A
C802        H811   1.083       .  S
C803        C804   1.410   1_455  A
C803        S807   1.803       .  S
C804        C805   1.406       .  A
C805        C806   1.407       .  A
C805        H812   1.083       .  S
C806        S808   1.800       .  S
S807        H810   1.407       .  S
S808        H809   1.405       .  S
C813        C814   1.404       .  A
C813        C818   1.419   1_545  A
C814        C815   1.409       .  A
C814        H823   1.084       .  S
C815        C816   1.418       .  A
C815        S819   1.805       .  S
C816        C817   1.400   1_545  A
C817        C818   1.403       .  A
C817        H824   1.084   1_455  S
C818        S820   1.805       .  S
S819        H822   1.406       .  S
S820        H821   1.407       .  S
C825        C826   1.411       .  A
C825        C830   1.411       .  A
C826        C827   1.414       .  A
C826        H835   1.084       .  S
C827        C828   1.415       .  A
C827        S831   1.801       .  S
C828        C829   1.408       .  A
C829        C830   1.398       .  A
C829        H836   1.084       .  S
C830        S832   1.804       .  S
S831        H834   1.405       .  S
S832        H833   1.406       .  S
C837        C838   1.400       .  A
C837        C842   1.419   1_545  A
C838        C839   1.403   1_545  A
C838        H847   1.084       .  S
C839        C840   1.419       .  A
C839        S843   1.805       .  S
C840        C841   1.404       .  A
C841        C842   1.411       .  A
C841        H848   1.084       .  S
C842        S844   1.804       .  S
S843        H846   1.407       .  S
S844        H845   1.406   1_565  S
C849        C850   1.404       .  A
C849        C854   1.412       .  A
C850        C851   1.404       .  A
C850        H859   1.085       .  S
C851        C852   1.412       .  A
C851        S855   1.803   1_545  S
C852        C853   1.405       .  A
C853        C854   1.402       .  A
C853        H860   1.085       .  S
C854        S856   1.804       .  S
S855        H858   1.404       .  S
S856        H857   1.405       .  S
C861        C862   1.405       .  A
C861        C866   1.412       .  A
C862        C863   1.407       .  A
C862        H871   1.084   1_556  S
C863        C864   1.417       .  A
C863        S867   1.804   1_556  S
C864        C865   1.406       .  A
C865        C866   1.403       .  A
C865        H872   1.084       .  S
C866        S868   1.804       .  S
S867        H870   1.407   1_554  S
S868        H869   1.406       .  S
C873        C874   1.403       .  A
C873        C878   1.417   1_565  A
C874        C875   1.409       .  A
C874        H883   1.083       .  S
C875        C876   1.419       .  A
C875        S879   1.807       .  S
C876        C877   1.400       .  A
C877        C878   1.402   1_565  A
C877        H884   1.083   1_565  S
C878        S880   1.805       .  S
S879        H882   1.404       .  S
S880        H881   1.407       .  S
C885        C886   1.409       .  A
C885        C890   1.413       .  A
C886        C887   1.408       .  A
C886        H895   1.083       .  S
C887        C888   1.413       .  A
C887        S891   1.800       .  S
C888        C889   1.408       .  A
C889        C890   1.404       .  A
C889        H896   1.084       .  S
C890        S892   1.803       .  S
S891        H894   1.405       .  S
S892        H893   1.407       .  S
C897        C898   1.400       .  A
C897        C902   1.419   1_565  A
C898        C899   1.402   1_564  A
C898        H907   1.084   1_554  S
C899        C900   1.421   1_556  A
C899        S903   1.806       .  S
C900        C901   1.404       .  A
C901        C902   1.410       .  A
C901        H908   1.083       .  S
C902        S904   1.799       .  S
S903        H906   1.407       .  S
S904        H905   1.406       .  S
C909        C910   1.402       .  A
C909        C914   1.417       .  A
C910        C911   1.408       .  A
C910        H919   1.084       .  S
C911        C912   1.420       .  A
C911        S915   1.804       .  S
C912        C913   1.400       .  A
C913        C914   1.398       .  A
C913        H920   1.084       .  S
C914        S916   1.806       .  S
S915        H918   1.404       .  S
S916        H917   1.407       .  S
C921        C922   1.402       .  A
C921        C926   1.415       .  A
C922        C923   1.407       .  A
C922        H931   1.083       .  S
C923        C924   1.419       .  A
C923        S927   1.804       .  S
C924        C925   1.400       .  A
C925        C926   1.397       .  A
C925        H932   1.084       .  S
C926        S928   1.806       .  S
S927        H930   1.407       .  S
S928        H929   1.407       .  S
C933        C934   1.408       .  A
C933        C938   1.417       .  A
C934        C935   1.403       .  A
C934        H943   1.083       .  S
C935        C936   1.411       .  A
C935        S939   1.802       .  S
C936        C937   1.405       .  A
C937        C938   1.405       .  A
C937        H944   1.083       .  S
C938        S940   1.803       .  S
S939        H942   1.405       .  S
S940        H941   1.407       .  S
C945        C946   1.405       .  A
C945        C950   1.427       .  A
C946        C947   1.398   1_554  A
C946        H955   1.084   1_554  S
C947        C948   1.416   1_556  A
C947        S951   1.805       .  S
C948        C949   1.402       .  A
C949        C950   1.409       .  A
C949        H956   1.085       .  S
C950        S952   1.802       .  S
S951        H954   1.407       .  S
S952        H953   1.408       .  S
C957        C958   1.401       .  A
C957        C962   1.414       .  A
C958        C959   1.404       .  A
C958        H967   1.083       .  S
C959        C960   1.421       .  A
C959        S963   1.803       .  S
C960        C961   1.407       .  A
C961        C962   1.405       .  A
C961        H968   1.083       .  S
C962        S964   1.804   1_554  S
S963        H966   1.408       .  S
S964        H965   1.407       .  S
C969        C970   1.404       .  A
C969        C974   1.412       .  A
C970        C971   1.406       .  A
C970        H979   1.084       .  S
C971        C972   1.418       .  A
C971        S975   1.803       .  S
C972        C973   1.406       .  A
C973        C974   1.403       .  A
C973        H980   1.084       .  S
C974        S976   1.803       .  S
S975        H978   1.407       .  S
S976        H977   1.407       .  S
C981        C982   1.412       .  A
C981        C986   1.413       .  A
C982        C983   1.404   1_556  A
C982        H991   1.085       .  S
C983        C984   1.410       .  A
C983        S987   1.804       .  S
C984        C985   1.409   1_554  A
C985        C986   1.410       .  A
C985        H992   1.084       .  S
C986        S988   1.798       .  S
S987        H990   1.407       .  S
S988        H989   1.406       .  S
C993        C994   1.409       .  A
C993        C998   1.411       .  A
C994        C995   1.411       .  A
C994       H1003   1.083       .  S
C995        C996   1.412   1_556  A
C995        S999   1.806   1_556  S
C996        C997   1.410   1_554  A
C997        C998   1.402       .  A
C997       H1004   1.085       .  S
C998       S1000   1.804       .  S
S999       H1002   1.407       .  S
S1000      H1001   1.405       .  S
C1005      C1006   1.407       .  A
C1005      C1010   1.410       .  A
C1006      C1007   1.405       .  A
C1006      H1015   1.084       .  S
C1007      C1008   1.414       .  A
C1007      S1011   1.801       .  S
C1008      C1009   1.413       .  A
C1009      C1010   1.403       .  A
C1009      H1016   1.084       .  S
C1010      S1012   1.804       .  S
S1011      H1014   1.407       .  S
S1012      H1013   1.406       .  S
C1017      C1018   1.410       .  A
C1017      C1022   1.410       .  A
C1018      C1019   1.412       .  A
C1018      H1027   1.084       .  S
C1019      C1020   1.415       .  A
C1019      S1023   1.799       .  S
C1020      C1021   1.410       .  A
C1021      C1022   1.403       .  A
C1021      H1028   1.084       .  S
C1022      S1024   1.803       .  S
S1023      H1026   1.405       .  S
S1024      H1025   1.406       .  S
C1029      C1030   1.400       .  A
C1029      C1034   1.419       .  A
C1030      C1031   1.401       .  A
C1030      H1039   1.084       .  S
C1031      C1032   1.420       .  A
C1031      S1035   1.806       .  S
C1032      C1033   1.405       .  A
C1033      C1034   1.411       .  A
C1033      H1040   1.084       .  S
C1034      S1036   1.803       .  S
S1035      H1038   1.407       .  S
S1036      H1037   1.406       .  S
C1041      C1042   1.410       .  A
C1041      C1046   1.413       .  A
C1042      C1043   1.411       .  A
C1042      H1051   1.084       .  S
C1043      C1044   1.414       .  A
C1043      S1047   1.800       .  S
C1044      C1045   1.408       .  A
C1045      C1046   1.402       .  A
C1045      H1052   1.085       .  S
C1046      S1048   1.804       .  S
S1047      H1050   1.404       .  S
S1048      H1049   1.407       .  S
C1053      C1054   1.401       .  A
C1053      C1058   1.418       .  A
C1054      C1055   1.401       .  A
C1054      H1063   1.085       .  S
C1055      C1056   1.418       .  A
C1055      S1059   1.805       .  S
C1056      C1057   1.403       .  A
C1057      C1058   1.408       .  A
C1057      H1064   1.084       .  S
C1058      S1060   1.803       .  S
S1059      H1062   1.407       .  S
S1060      H1061   1.407       .  S
C1065      C1066   1.401       .  A
C1065      C1070   1.417       .  A
C1066      C1067   1.401       .  A
C1066      H1075   1.084       .  S
C1067      C1068   1.416       .  A
C1067      S1071   1.805       .  S
C1068      C1069   1.404       .  A
C1069      C1070   1.410       .  A
C1069      H1076   1.084       .  S
C1070      S1072   1.804       .  S
S1071      H1074   1.407       .  S
S1072      H1073   1.405       .  S
C1077      C1078   1.408       .  A
C1077      C1082   1.412       .  A
C1078      C1079   1.402       .  A
C1078      H1087   1.084       .  S
C1079      C1080   1.411       .  A
C1079      S1083   1.804       .  S
C1080      C1081   1.409       .  A
C1081      C1082   1.414       .  A
C1081      H1088   1.082       .  S
C1082      S1084   1.805       .  S
S1083      H1086   1.407       .  S
S1084      H1085   1.407       .  S
C1089      C1090   1.403       .  A
C1089      C1094   1.417   1_545  A
C1090      C1091   1.406       .  A
C1090      H1099   1.084       .  S
C1091      C1092   1.417       .  A
C1091      S1095   1.805       .  S
C1092      C1093   1.401   1_545  A
C1093      C1094   1.405       .  A
C1093      H1100   1.084       .  S
C1094      S1096   1.804       .  S
S1095      H1098   1.406       .  S
S1096      H1097   1.407       .  S
C1101      C1102   1.412       .  A
C1101      C1106   1.411       .  A
C1102      C1103   1.409       .  A
C1102      H1111   1.084       .  S
C1103      C1104   1.412       .  A
C1103      S1107   1.799       .  S
C1104      C1105   1.409       .  A
C1105      C1106   1.401       .  A
C1105      H1112   1.084       .  S
C1106      S1108   1.803       .  S
S1107      H1110   1.406       .  S
S1108      H1109   1.407       .  S
C1113      C1114   1.400       .  A
C1113      C1118   1.420       .  A
C1114      C1115   1.399       .  A
C1114      H1123   1.085       .  S
C1115      C1116   1.416       .  A
C1115      S1119   1.805       .  S
C1116      C1117   1.405       .  A
C1117      C1118   1.411       .  A
C1117      H1124   1.084       .  S
C1118      S1120   1.805       .  S
S1119      H1122   1.407       .  S
S1120      H1121   1.406       .  S
C1125      C1126   1.409       .  A
C1125      C1130   1.411       .  A
C1126      C1127   1.411       .  A
C1126      H1135   1.084       .  S
C1127      C1128   1.415       .  A
C1127      S1131   1.801       .  S
C1128      C1129   1.408       .  A
C1129      C1130   1.401       .  A
C1129      H1136   1.085       .  S
C1130      S1132   1.804       .  S
S1131      H1134   1.404       .  S
S1132      H1133   1.406       .  S
C1137      C1138   1.408       .  A
C1137      C1142   1.409       .  A
C1138      C1139   1.412       .  A
C1138      H1147   1.083       .  S
C1139      C1140   1.412       .  A
C1139      S1143   1.805       .  S
C1140      C1141   1.407       .  A
C1141      C1142   1.399       .  A
C1141      H1148   1.084       .  S
C1142      S1144   1.804       .  S
S1143      H1146   1.407       .  S
S1144      H1145   1.407       .  S
C1149      C1150   1.410   1_545  A
C1149      C1154   1.410       .  A
C1150      C1151   1.412       .  A
C1150      H1159   1.084       .  S
C1151      C1152   1.415       .  A
C1151      S1155   1.800       .  S
C1152      C1153   1.410       .  A
C1153      C1154   1.400   1_565  A
C1153      H1160   1.084       .  S
C1154      S1156   1.804       .  S
S1155      H1158   1.407       .  S
S1156      H1157   1.407       .  S
C1161      C1162   1.404       .  A
C1161      C1166   1.417       .  A
C1162      C1163   1.410       .  A
C1162      H1171   1.083       .  S
C1163      C1164   1.420       .  A
C1163      S1167   1.806       .  S
C1164      C1165   1.400       .  A
C1165      C1166   1.401       .  A
C1165      H1172   1.083       .  S
C1166      S1168   1.805       .  S
S1167      H1170   1.405       .  S
S1168      H1169   1.407       .  S
C1173      C1174   1.401       .  A
C1173      C1178   1.417       .  A
C1174      C1175   1.402       .  A
C1174      H1183   1.085       .  S
C1175      C1176   1.417       .  A
C1175      S1179   1.805   1_455  S
C1176      C1177   1.405       .  A
C1177      C1178   1.410       .  A
C1177      H1184   1.084       .  S
C1178      S1180   1.803       .  S
S1179      H1182   1.407       .  S
S1180      H1181   1.406       .  S
C1185      C1186   1.408       .  A
C1185      C1190   1.411       .  A
C1186      C1187   1.409       .  A
C1186      H1195   1.085       .  S
C1187      C1188   1.415       .  A
C1187      S1191   1.799       .  S
C1188      C1189   1.407   1_455  A
C1189      C1190   1.399   1_655  A
C1189      H1196   1.086       .  S
C1190      S1192   1.803   1_455  S
S1191      H1194   1.406       .  S
S1192      H1193   1.407       .  S
C1197      C1198   1.404       .  A
C1197      C1202   1.418       .  A
C1198      C1199   1.412       .  A
C1198      H1207   1.083       .  S
C1199      C1200   1.422       .  A
C1199      S1203   1.805       .  S
C1200      C1201   1.400       .  A
C1201      C1202   1.401       .  A
C1201      H1208   1.084       .  S
C1202      S1204   1.805       .  S
S1203      H1206   1.405       .  S
S1204      H1205   1.407       .  S
C1209      C1210   1.404       .  A
C1209      C1214   1.414       .  A
C1210      C1211   1.407       .  A
C1210      H1219   1.084       .  S
C1211      C1212   1.417       .  A
C1211      S1215   1.806       .  S
C1212      C1213   1.400       .  A
C1213      C1214   1.398       .  A
C1213      H1220   1.084       .  S
C1214      S1216   1.804       .  S
S1215      H1218   1.406       .  S
S1216      H1217   1.407       .  S
C1221      C1222   1.409       .  A
C1221      C1226   1.413       .  A
C1222      C1223   1.401   1_655  A
C1222      H1231   1.084       .  S
C1223      C1224   1.408       .  A
C1223      S1227   1.804       .  S
C1224      C1225   1.407   1_455  A
C1225      C1226   1.406       .  A
C1225      H1232   1.084       .  S
C1226      S1228   1.799       .  S
S1227      H1230   1.407       .  S
S1228      H1229   1.406       .  S
C1233      C1234   1.410   1_565  A
C1233      C1238   1.411       .  A
C1234      C1235   1.412       .  A
C1234      H1243   1.084       .  S
C1235      C1236   1.415       .  A
C1235      S1239   1.798       .  S
C1236      C1237   1.409       .  A
C1237      C1238   1.398   1_545  A
C1237      H1244   1.085       .  S
C1238      S1240   1.805       .  S
S1239      H1242   1.407       .  S
S1240      H1241   1.407       .  S
C1245      C1246   1.400   1_455  A
C1245      C1250   1.420       .  A
C1246      C1247   1.403       .  A
C1246      H1255   1.083       .  S
C1247      C1248   1.420   1_655  A
C1247      S1251   1.806       .  S
C1248      C1249   1.404       .  A
C1249      C1250   1.411       .  A
C1249      H1256   1.083       .  S
C1250      S1252   1.804       .  S
S1251      H1254   1.407       .  S
S1252      H1253   1.407       .  S
C1257      C1258   1.403       .  A
C1257      C1262   1.418       .  A
C1258      C1259   1.409       .  A
C1258      H1267   1.084       .  S
C1259      C1260   1.420       .  A
C1259      S1263   1.804       .  S
C1260      C1261   1.401       .  A
C1261      C1262   1.401       .  A
C1261      H1268   1.085       .  S
C1262      S1264   1.806       .  S
S1263      H1266   1.407       .  S
S1264      H1265   1.407       .  S
C1269      C1270   1.401       .  A
C1269      C1274   1.418       .  A
C1270      C1271   1.401       .  A
C1270      H1279   1.084       .  S
C1271      C1272   1.417       .  A
C1271      S1275   1.805       .  S
C1272      C1273   1.403       .  A
C1273      C1274   1.408       .  A
C1273      H1280   1.083       .  S
C1274      S1276   1.803       .  S
S1275      H1278   1.407       .  S
S1276      H1277   1.407       .  S
C1281      C1282   1.403       .  A
C1281      C1286   1.413       .  A
C1282      C1283   1.402       .  A
C1282      H1291   1.084   1_565  S
C1283      C1284   1.417       .  A
C1283      S1287   1.803       .  S
C1284      C1285   1.409       .  A
C1285      C1286   1.407       .  A
C1285      H1292   1.084       .  S
C1286      S1288   1.803       .  S
S1287      H1290   1.407       .  S
S1288      H1289   1.405       .  S
C1293      C1294   1.407   1_545  A
C1293      C1298   1.429       .  A
C1294      C1295   1.405   1_565  A
C1294      H1303   1.083       .  S
C1295      C1296   1.418       .  A
C1295      S1299   1.806       .  S
C1296      C1297   1.400       .  A
C1297      C1298   1.409       .  A
C1297      H1304   1.084       .  S
C1298      S1300   1.802       .  S
S1299      H1302   1.407       .  S
S1300      H1301   1.408       .  S
C1305      C1306   1.405       .  A
C1305      C1310   1.427       .  A
C1306      C1307   1.399       .  A
C1306      H1315   1.082       .  S
C1307      C1308   1.419       .  A
C1307      S1311   1.807       .  S
C1308      C1309   1.401       .  A
C1309      C1310   1.412       .  A
C1309      H1316   1.082       .  S
C1310      S1312   1.808       .  S
S1311      H1314   1.407       .  S
S1312      H1313   1.407       .  S
C1317      C1318   1.408       .  A
C1317      C1322   1.420       .  A
C1318      C1319   1.405       .  A
C1318      H1327   1.084       .  S
C1319      C1320   1.412       .  A
C1319      S1323   1.802       .  S
C1320      C1321   1.406       .  A
C1321      C1322   1.408       .  A
C1321      H1328   1.084       .  S
C1322      S1324   1.801       .  S
S1323      H1326   1.405       .  S
S1324      H1325   1.407       .  S
C1329      C1330   1.407       .  A
C1329      C1334   1.427       .  A
C1330      C1331   1.401       .  A
C1330      H1339   1.083       .  S
C1331      C1332   1.413       .  A
C1331      S1335   1.805       .  S
C1332      C1333   1.400       .  A
C1333      C1334   1.411       .  A
C1333      H1340   1.082       .  S
C1334      S1336   1.810       .  S
S1335      H1338   1.407       .  S
S1336      H1337   1.407       .  S
C1341      C1342   1.407       .  A
C1341      C1346   1.419       .  A
C1342      C1343   1.405       .  A
C1342      H1351   1.083       .  S
C1343      C1344   1.410       .  A
C1343      S1347   1.807   1_455  S
C1344      C1345   1.402       .  A
C1345      C1346   1.406       .  A
C1345      H1352   1.084       .  S
C1346      S1348   1.802       .  S
S1347      H1350   1.407       .  S
S1348      H1349   1.407       .  S
C1353      C1354   1.407   1_455  A
C1353      C1358   1.411       .  A
C1354      C1355   1.402   1_656  A
C1354      H1363   1.083       .  S
C1355      C1356   1.414       .  A
C1355      S1359   1.803   1_455  S
C1356      C1357   1.413   1_554  A
C1357      C1358   1.406       .  A
C1357      H1364   1.082       .  S
C1358      S1360   1.801       .  S
S1359      H1362   1.408       .  S
S1360      H1361   1.406       .  S
C1365      C1366   1.406       .  A
C1365      C1370   1.413       .  A
C1366      C1367   1.402       .  A
C1366      H1375   1.084       .  S
C1367      C1368   1.412       .  A
C1367      S1371   1.805       .  S
C1368      C1369   1.404       .  A
C1369      C1370   1.405       .  A
C1369      H1376   1.083       .  S
C1370      S1372   1.802   1_565  S
S1371      H1374   1.405       .  S
S1372      H1373   1.404       .  S
C1377      C1378   1.402       .  A
C1377      C1382   1.414       .  A
C1378      C1379   1.409       .  A
C1378      H1387   1.084       .  S
C1379      C1380   1.425       .  A
C1379      S1383   1.802       .  S
C1380      C1381   1.407       .  A
C1381      C1382   1.402       .  A
C1381      H1388   1.083       .  S
C1382      S1384   1.805   1_545  S
S1383      H1386   1.408       .  S
S1384      H1385   1.407       .  S
C1389      C1390   1.412       .  A
C1389      C1394   1.418       .  A
C1390      C1391   1.405       .  A
C1390      H1399   1.082       .  S
C1391      C1392   1.410       .  A
C1391      S1395   1.799       .  S
C1392      C1393   1.407   1_554  A
C1393      C1394   1.407   1_556  A
C1393      H1400   1.082       .  S
C1394      S1396   1.809   1_564  S
S1395      H1398   1.407       .  S
S1396      H1397   1.407       .  S
C1401      C1402   1.403       .  A
C1401      C1406   1.412       .  A
C1402      C1403   1.404       .  A
C1402      H1411   1.084   1_554  S
C1403      C1404   1.418       .  A
C1403      S1407   1.802       .  S
C1404      C1405   1.406       .  A
C1405      C1406   1.404       .  A
C1405      H1412   1.084       .  S
C1406      S1408   1.803       .  S
S1407      H1410   1.407       .  S
S1408      H1409   1.405       .  S
C1413      C1414   1.410   1_565  A
C1413      C1418   1.413       .  A
C1414      C1415   1.402   1_655  A
C1414      H1423   1.084       .  S
C1415      C1416   1.410   1_545  A
C1415      S1419   1.804       .  S
C1416      C1417   1.407   1_455  A
C1417      C1418   1.408       .  A
C1417      H1424   1.084       .  S
C1418      S1420   1.798       .  S
S1419      H1422   1.407       .  S
S1420      H1421   1.406       .  S
C1425      C1426   1.399       .  A
C1425      C1430   1.416   1_545  A
C1426      C1427   1.407       .  A
C1426      H1435   1.083       .  S
C1427      C1428   1.430   1_655  A
C1427      S1431   1.802       .  S
C1428      C1429   1.407       .  A
C1429      C1430   1.409   1_445  A
C1429      H1436   1.081   1_545  S
C1430      S1432   1.809       .  S
S1431      H1434   1.408       .  S
S1432      H1433   1.407   1_655  S
C1437      C1438   1.409   1_565  A
C1437      C1442   1.410       .  A
C1438      C1439   1.405       .  A
C1438      H1447   1.084       .  S
C1439      C1440   1.414   1_545  A
C1439      S1443   1.802       .  S
C1440      C1441   1.413       .  A
C1441      C1442   1.403       .  A
C1441      H1448   1.083       .  S
C1442      S1444   1.799       .  S
S1443      H1446   1.408       .  S
S1444      H1445   1.406       .  S
C1449      C1450   1.400       .  A
C1449      C1454   1.418   1_556  A
C1450      C1451   1.407       .  A
C1450      H1459   1.083       .  S
C1451      C1452   1.429       .  A
C1451      S1455   1.802       .  S
C1452      C1453   1.405   1_565  A
C1453      C1454   1.401   1_546  A
C1453      H1460   1.083   1_556  S
C1454      S1456   1.806       .  S
S1455      H1458   1.408       .  S
S1456      H1457   1.407       .  S
C1461      C1462   1.407       .  A
C1461      C1466   1.421       .  A
C1462      C1463   1.400       .  A
C1462      H1471   1.084       .  S
C1463      C1464   1.410       .  A
C1463      S1467   1.804   1_556  S
C1464      C1465   1.402       .  A
C1465      C1466   1.410       .  A
C1465      H1472   1.083       .  S
C1466      S1468   1.807       .  S
S1467      H1470   1.407       .  S
S1468      H1469   1.407       .  S
C1473      C1474   1.415   1_556  A
C1473      C1478   1.416       .  A
C1474      C1475   1.410       .  A
C1474      H1483   1.082       .  S
C1475      C1476   1.408       .  A
C1475      S1479   1.807       .  S
C1476      C1477   1.408       .  A
C1477      C1478   1.405   1_554  A
C1477      H1484   1.085       .  S
C1478      S1480   1.801       .  S
S1479      H1482   1.407       .  S
S1480      H1481   1.407       .  S
C1485      C1486   1.405       .  A
C1485      C1490   1.417       .  A
C1486      C1487   1.405       .  A
C1486      H1495   1.083       .  S
C1487      C1488   1.414       .  A
C1487      S1491   1.803       .  S
C1488      C1489   1.403       .  A
C1489      C1490   1.409       .  A
C1489      H1496   1.083   1_545  S
C1490      S1492   1.807       .  S
S1491      H1494   1.405       .  S
S1492      H1493   1.407   1_545  S
C1497      C1498   1.406   1_545  A
C1497      C1502   1.410       .  A
C1498      C1499   1.403   1_565  A
C1498      H1507   1.084       .  S
C1499      C1500   1.417       .  A
C1499      S1503   1.803   1_545  S
C1500      C1501   1.411       .  A
C1501      C1502   1.404       .  A
C1501      H1508   1.083       .  S
C1502      S1504   1.800       .  S
S1503      H1506   1.408       .  S
S1504      H1505   1.406       .  S
C1509      C1510   1.404       .  A
C1509      C1514   1.411       .  A
C1510      C1511   1.402       .  A
C1510      H1519   1.085       .  S
C1511      C1512   1.418       .  A
C1511      S1515   1.801       .  S
C1512      C1513   1.410       .  A
C1513      C1514   1.405       .  A
C1513      H1520   1.084       .  S
C1514      S1516   1.801       .  S
S1515      H1518   1.407       .  S
S1516      H1517   1.405       .  S
C1521      C1522   1.407       .  A
C1521      C1526   1.416       .  A
C1522      C1523   1.404       .  A
C1522      H1531   1.085   1_556  S
C1523      C1524   1.412       .  A
C1523      S1527   1.804   1_556  S
C1524      C1525   1.407       .  A
C1525      C1526   1.411       .  A
C1525      H1532   1.084       .  S
C1526      S1528   1.801       .  S
S1527      H1530   1.406   1_554  S
S1528      H1529   1.404       .  S
C1533      C1534   1.409   1_556  A
C1533      C1538   1.407       .  A
C1534      C1535   1.412       .  A
C1534      H1543   1.083       .  S
C1535      C1536   1.411       .  A
C1535      S1539   1.805       .  S
C1536      C1537   1.410       .  A
C1537      C1538   1.400   1_554  A
C1537      H1544   1.084       .  S
C1538      S1540   1.803       .  S
S1539      H1542   1.407       .  S
S1540      H1541   1.406       .  S
C1545      C1546   1.402       .  A
C1545      C1550   1.416       .  A
C1546      C1547   1.404       .  A
C1546      H1555   1.084       .  S
C1547      C1548   1.414       .  A
C1547      S1551   1.803       .  S
C1548      C1549   1.405       .  A
C1549      C1550   1.408       .  A
C1549      H1556   1.084       .  S
C1550      S1552   1.805       .  S
S1551      H1554   1.405       .  S
S1552      H1553   1.404       .  S
C1557      C1558   1.411       .  A
C1557      C1562   1.410       .  A
C1558      C1559   1.415       .  A
C1558      H1567   1.083       .  S
C1559      C1560   1.412       .  A
C1559      S1563   1.805       .  S
C1560      C1561   1.409       .  A
C1561      C1562   1.401       .  A
C1561      H1568   1.085       .  S
C1562      S1564   1.804       .  S
S1563      H1566   1.407       .  S
S1564      H1565   1.407       .  S
C1569      C1570   1.410       .  A
C1569      C1574   1.411       .  A
C1570      C1571   1.409       .  A
C1570      H1579   1.084       .  S
C1571      C1572   1.412       .  A
C1571      S1575   1.798       .  S
C1572      C1573   1.409       .  A
C1573      C1574   1.399       .  A
C1573      H1580   1.084       .  S
C1574      S1576   1.805       .  S
S1575      H1578   1.405       .  S
S1576      H1577   1.407       .  S
C1581      C1582   1.403   1_554  A
C1581      C1586   1.417       .  A
C1582      C1583   1.408       .  A
C1582      H1591   1.084       .  S
C1583      C1584   1.419       .  A
C1583      S1587   1.803       .  S
C1584      C1585   1.400   1_556  A
C1585      C1586   1.403       .  A
C1585      H1592   1.083       .  S
C1586      S1588   1.810       .  S
S1587      H1590   1.406       .  S
S1588      H1589   1.407       .  S
C1593      C1594   1.405       .  A
C1593      C1598   1.430   1_554  A
C1594      C1595   1.401   1_654  A
C1594      H1603   1.084   1_655  S
C1595      C1596   1.419   1_455  A
C1595      S1599   1.806       .  S
C1596      C1597   1.400       .  A
C1597      C1598   1.409       .  A
C1597      H1604   1.084       .  S
C1598      S1600   1.802       .  S
S1599      H1602   1.407       .  S
S1600      H1601   1.408       .  S
C1605      C1606   1.401       .  A
C1605      C1610   1.409       .  A
C1606      C1607   1.403       .  A
C1606      H1615   1.084       .  S
C1607      C1608   1.418       .  A
C1607      S1611   1.803       .  S
C1608      C1609   1.406       .  A
C1609      C1610   1.405       .  A
C1609      H1616   1.083       .  S
C1610      S1612   1.806   1_655  S
S1611      H1614   1.407       .  S
S1612      H1613   1.407       .  S
C1617      C1618   1.415   1_655  A
C1617      C1622   1.418       .  A
C1618      C1619   1.407       .  A
C1618      H1627   1.083       .  S
C1619      C1620   1.410       .  A
C1619      S1623   1.802       .  S
C1620      C1621   1.409       .  A
C1621      C1622   1.406   1_455  A
C1621      H1628   1.084       .  S
C1622      S1624   1.801       .  S
S1623      H1626   1.407       .  S
S1624      H1625   1.407       .  S
C1629      C1630   1.409       .  A
C1629      C1634   1.418       .  A
C1630      C1631   1.412       .  A
C1630      H1639   1.083       .  S
C1631      C1632   1.412       .  A
C1631      S1635   1.806       .  S
C1632      C1633   1.403       .  A
C1633      C1634   1.405       .  A
C1633      H1640   1.084   1_554  S
C1634      S1636   1.803       .  S
S1635      H1638   1.407       .  S
S1636      H1637   1.407       .  S
C1641      C1642   1.412       .  A
C1641      C1646   1.415       .  A
C1642      C1643   1.403       .  A
C1642      H1651   1.082       .  S
C1643      C1644   1.409       .  A
C1643      S1647   1.803       .  S
C1644      C1645   1.406       .  A
C1645      C1646   1.401       .  A
C1645      H1652   1.084   1_554  S
C1646      S1648   1.802   1_554  S
S1647      H1650   1.407       .  S
S1648      H1649   1.408       .  S
C1653      C1654   1.404       .  A
C1653      C1658   1.411       .  A
C1654      C1655   1.403       .  A
C1654      H1663   1.085       .  S
C1655      C1656   1.419       .  A
C1655      S1659   1.801       .  S
C1656      C1657   1.409       .  A
C1657      C1658   1.406       .  A
C1657      H1664   1.084       .  S
C1658      S1660   1.801       .  S
S1659      H1662   1.407       .  S
S1660      H1661   1.405       .  S
C1665      C1666   1.404       .  A
C1665      C1670   1.413       .  A
C1666      C1667   1.405       .  A
C1666      H1675   1.084       .  S
C1667      C1668   1.412       .  A
C1667      S1671   1.803   1_655  S
C1668      C1669   1.407       .  A
C1669      C1670   1.406       .  A
C1669      H1676   1.084       .  S
C1670      S1672   1.804       .  S
S1671      H1674   1.405       .  S
S1672      H1673   1.406       .  S
C1677      C1678   1.408       .  A
C1677      C1682   1.410   1_655  A
C1678      C1679   1.407       .  A
C1678      H1687   1.085       .  S
C1679      C1680   1.413       .  A
C1679      S1683   1.799       .  S
C1680      C1681   1.408   1_655  A
C1681      C1682   1.399       .  A
C1681      H1688   1.085       .  S
C1682      S1684   1.804       .  S
S1683      H1686   1.406       .  S
S1684      H1685   1.407       .  S
C1689      C1690   1.409       .  A
C1689      C1694   1.407       .  A
C1690      C1691   1.409       .  A
C1690      H1699   1.084       .  S
C1691      C1692   1.414       .  A
C1691      S1695   1.801       .  S
C1692      C1693   1.409       .  A
C1693      C1694   1.399       .  A
C1693      H1700   1.085       .  S
C1694      S1696   1.804   1_455  S
S1695      H1698   1.406       .  S
S1696      H1697   1.407       .  S
C1701      C1702   1.404       .  A
C1701      C1706   1.419       .  A
C1702      C1703   1.411       .  A
C1702      H1711   1.083       .  S
C1703      C1704   1.421       .  A
C1703      S1707   1.803       .  S
C1704      C1705   1.400       .  A
C1705      C1706   1.401       .  A
C1705      H1712   1.084       .  S
C1706      S1708   1.806       .  S
S1707      H1710   1.406       .  S
S1708      H1709   1.407       .  S
C1713      C1714   1.405       .  A
C1713      C1718   1.415       .  A
C1714      C1715   1.409       .  A
C1714      H1723   1.082       .  S
C1715      C1716   1.410       .  A
C1715      S1719   1.807       .  S
C1716      C1717   1.401       .  A
C1717      C1718   1.403       .  A
C1717      H1724   1.083       .  S
C1718      S1720   1.804       .  S
S1719      H1722   1.407       .  S
S1720      H1721   1.406       .  S
C1725      C1726   1.402       .  A
C1725      C1730   1.419       .  A
C1726      C1727   1.407       .  A
C1726      H1735   1.084       .  S
C1727      C1728   1.419       .  A
C1727      S1731   1.804       .  S
C1728      C1729   1.398       .  A
C1729      C1730   1.398       .  A
C1729      H1736   1.085       .  S
C1730      S1732   1.806       .  S
S1731      H1734   1.407       .  S
S1732      H1733   1.407       .  S
C1737      C1738   1.400       .  A
C1737      C1742   1.421       .  A
C1738      C1739   1.402       .  A
C1738      H1747   1.085       .  S
C1739      C1740   1.421       .  A
C1739      S1743   1.805       .  S
C1740      C1741   1.404       .  A
C1741      C1742   1.412       .  A
C1741      H1748   1.084       .  S
C1742      S1744   1.803       .  S
S1743      H1746   1.407       .  S
S1744      H1745   1.406       .  S
C1749      C1750   1.402       .  A
C1749      C1754   1.419       .  A
C1750      C1751   1.403       .  A
C1750      H1759   1.082       .  S
C1751      C1752   1.417       .  A
C1751      S1755   1.805       .  S
C1752      C1753   1.405       .  A
C1753      C1754   1.412       .  A
C1753      H1760   1.082       .  S
C1754      S1756   1.802       .  S
S1755      H1758   1.407       .  S
S1756      H1757   1.405       .  S
C1761      C1762   1.400       .  A
C1761      C1766   1.419       .  A
C1762      C1763   1.402       .  A
C1762      H1771   1.084       .  S
C1763      C1764   1.418       .  A
C1763      S1767   1.804       .  S
C1764      C1765   1.403       .  A
C1765      C1766   1.408       .  A
C1765      H1772   1.084       .  S
C1766      S1768   1.803       .  S
S1767      H1770   1.407       .  S
S1768      H1769   1.407       .  S
C1773      C1774   1.402       .  A
C1773      C1778   1.419       .  A
C1774      C1775   1.401       .  A
C1774      H1783   1.085       .  S
C1775      C1776   1.417       .  A
C1775      S1779   1.805       .  S
C1776      C1777   1.405       .  A
C1777      C1778   1.411       .  A
C1777      H1784   1.084       .  S
C1778      S1780   1.802       .  S
S1779      H1782   1.407       .  S
S1780      H1781   1.406       .  S
C1785      C1786   1.407       .  A
C1785      C1790   1.409       .  A
C1786      C1787   1.405       .  A
C1786      H1795   1.085       .  S
C1787      C1788   1.412       .  A
C1787      S1791   1.802       .  S
C1788      C1789   1.409       .  A
C1789      C1790   1.401       .  A
C1789      H1796   1.085       .  S
C1790      S1792   1.803       .  S
S1791      H1794   1.407       .  S
S1792      H1793   1.407       .  S
C1797      C1798   1.409       .  A
C1797      C1802   1.411       .  A
C1798      C1799   1.411       .  A
C1798      H1807   1.084       .  S
C1799      C1800   1.414       .  A
C1799      S1803   1.799       .  S
C1800      C1801   1.409       .  A
C1801      C1802   1.402       .  A
C1801      H1808   1.084       .  S
C1802      S1804   1.803       .  S
S1803      H1806   1.405       .  S
S1804      H1805   1.407       .  S
