geometry optimzed in LAMMPS
_audit_creation_date              2020-11-30 
_audit_creation_method            'lammps2cif' 
_symmetry_space_group_name_H-M    'P1' 
_symmetry_Int_Tables_number       1 
_symmetry_cell_setting            triclinic 
loop_ 
_symmetry_equiv_pos_as_xyz 
  x,y,z 
_cell_length_a                    38.9114236 
_cell_length_b                    30.360900628034955 
_cell_length_c                    38.05801986016437 
_cell_angle_alpha                 89.95027634098324 
_cell_angle_beta                  110.3867089558022 
_cell_angle_gamma                 90.06285303360953 
loop_ 
_atom_site_label 
_atom_site_type_symbol 
_atom_site_fract_x 
_atom_site_fract_y 
_atom_site_fract_z 
_atom_site_charge 
C1          C  0.12189855  0.16598349  0.50312151    -0.03300
O2          O  0.09755268  0.09478540  0.60137274    -0.58600
C3          C  0.10236718  0.13069219  0.51676243     0.74000
O4          O  0.09507118  0.33186097  0.54529653    -0.59800
C5          C  0.09839564  0.05587738  0.61360628     0.74000
C6          C  0.98899055  0.08422226  0.53522571     0.76400
Cd7        Cd  0.06309731  0.06854016  0.53905122     1.37500
O8          O  0.10171940  0.12950584  0.54962063    -0.58600
O9          O  0.01398834  0.11275311  0.54629922    -0.57400
C10         C  0.10075035  0.33578301  0.51464900     0.76300
O11         O  0.99577856  0.05049609  0.51903824    -0.59800
O12         O  0.08174014  0.10368480  0.49328774    -0.58300
O13         O  0.08274472  0.02543233  0.59093535    -0.58300
O14         O  0.08468858  0.03399174  0.49407163    -0.57400
O15         O  0.13925675  0.08376456  0.39820789    -0.58600
C16         C  0.14489359  0.13997296  0.48647117     0.74000
O17         O  0.17262608  0.34919225  0.50533238    -0.59800
C18         C  0.15531316  0.05356784  0.38679940     0.74000
C19         C  0.24771419  0.08137607  0.46275355     0.76400
Cd20       Cd  0.17638114  0.07034054  0.46055240     1.37500
O21         O  0.13493451  0.13271470  0.45161643    -0.58600
O22         O  0.22515078  0.11285873  0.45245096    -0.57400
C23         C  0.14394174  0.32999103  0.48392265     0.76300
O24         O  0.23863412  0.04846564  0.47814671    -0.59800
O25         O  0.17236961  0.11877439  0.50786586    -0.58300
O26         O  0.18244871  0.03416589  0.41002347    -0.58300
O27         O  0.13285778  0.00811280  0.45055947    -0.57400
C28         C  0.12126163  0.30161759  0.50009379    -0.03300
C29         C  0.17759308  0.25020666  0.09407192     0.85700
C30         C  0.15456948  0.28861683  0.07163892    -0.54600
C31         C  0.15026794  0.28824090  0.03377366     0.08600
C32         C  0.17041149  0.25012081  0.02273078     0.19500
C33         C  0.15813102  0.20883165  0.07098409    -0.55300
C34         C  0.15294056  0.20973445  0.03329140     0.08700
C35         C  0.21360188  0.25475069  0.08600749    -0.54800
C36         C  0.20984917  0.25288656  0.04917683     0.09300
H37         H  0.14357751  0.97918864  0.08525868     0.13800
H38         H  0.16837302  0.25025445  0.99286600    -0.00500
H39         H  0.14729801  0.18268906  0.08287377     0.14100
H40         H  0.24032574  0.25902780  0.10760383     0.13900
C41         C  0.18366949  0.24738374  0.13814680     0.85700
C42         C  0.18955834  0.28964104  0.16191724    -0.54600
C43         C  0.19431615  0.28211196  0.19904156     0.08600
C44         C  0.19577041  0.23174314  0.20965629     0.19500
C45         C  0.21776134  0.21884739  0.15884073    -0.55300
C46         C  0.22514118  0.21169262  0.19623141     0.08700
C47         C  0.15184971  0.22586363  0.14687717    -0.54800
C48         C  0.16015291  0.21004848  0.18304621     0.09300
H49         H  0.18878462  0.32249751  0.15041578     0.13800
H50         H  0.20049907  0.22607391  0.23979979    -0.00500
H51         H  0.23575995  0.20686694  0.14493135     0.14100
H52         H  0.12656072  0.21733183  0.12445913     0.13900
C53         C  0.03308027  0.23216119  0.45761889     0.85700
C54         C  0.05749668  0.19593662  0.47821744    -0.54600
C55         C  0.09130226  0.19391248  0.47425400     0.08600
C56         C  0.09558210  0.23145452  0.44731292     0.19500
C57         C  0.05534166  0.27391744  0.47010199    -0.55300
C58         C  0.09050653  0.27345295  0.46942330     0.08700
C59         C  0.02869706  0.22550144  0.41720017    -0.54800
C60         C  0.06019822  0.22751707  0.40927056     0.09300
H61         H  0.04887798  0.17643398  0.49758069     0.13800
H62         H  0.12126755  0.23092122  0.44110364    -0.00500
H63         H  0.04456702  0.29915457  0.48335268     0.14100
H64         H  0.00174301  0.22037453  0.39627688     0.13900
C65         C  0.05595488  0.23331163  0.36655660     0.85700
C66         C  0.01912033  0.25648113  0.34287653    -0.54600
C67         C  0.01364614  0.26247819  0.30583751     0.08600
C68         C  0.04632575  0.24804035  0.29530910     0.19500
C69         C  0.05618076  0.19134362  0.34411933    -0.55300
C70         C  0.05173888  0.19832487  0.30672462     0.08700
C71         C  0.08535277  0.26157632  0.35988815    -0.54800
C72         C  0.07880542  0.27389948  0.32292069     0.09300
H73         H  0.49892112  0.26819242  0.35355150     0.13800
H74         H  0.04261654  0.25412462  0.26542951    -0.00500
H75         H  0.05892888  0.15930913  0.35725169     0.14100
H76         H  0.10731053  0.27507681  0.38362636     0.13900
C77         C  0.23099190  0.02994598  0.28083079     0.85700
C78         C  0.23206964  0.33538356  0.24794375    -0.54600
C79         C  0.19832407  0.31892731  0.22670612     0.08600
C80         C  0.16559917  0.00382915  0.23867013     0.19500
C81         C  0.20404988  0.06760846  0.26390801    -0.55300
C82         C  0.17054878  0.05484578  0.24052662     0.08700
C83         C  0.21156093  0.99936269  0.30008156    -0.54800
C84         C  0.17522286  0.99011205  0.28010453     0.09300
H85         H  0.25708425  0.32757537  0.24317437     0.13800
H86         H  0.13893186  0.32518764  0.22094657    -0.00500
H87         H  0.21151412  0.10172707  0.26868596     0.14100
H88         H  0.22567526  0.98770536  0.32824762     0.13900
C89         C  0.10671853  0.10620076  0.15120541     0.85700
C90         C  0.13568011  0.13963981  0.15339699    -0.54600
C91         C  0.14984795  0.16178080  0.18626932     0.08600
C92         C  0.13970716  0.13756081  0.21788939     0.19500
C93         C  0.12713819  0.07085933  0.17807790    -0.55300
C94         C  0.14540684  0.08613248  0.21328220     0.08700
C95         C  0.08073326  0.12697865  0.16857529    -0.54800
C96         C  0.09749730  0.14179630  0.20432924     0.09300
H97         H  0.14218867  0.14729882  0.12880316     0.13800
H98         H  0.15407648  0.15070943  0.24647872    -0.00500
H99         H  0.12887608  0.03719225  0.16926572     0.14100
H100        H  0.05122582  0.12468857  0.15544778     0.13900
C101        C  0.05154623  0.16150794  0.27842611     0.85700
C102        C  0.06487398  0.11591638  0.29563890    -0.54600
C103        C  0.06988998  0.08453255  0.27139643     0.08600
C104        C  0.05313643  0.10015755  0.23055892     0.19500
C105        C  0.07626158  0.17247692  0.25516326    -0.55300
C106        C  0.07627688  0.14064242  0.22975217     0.08700
C107        C  0.01382100  0.15117777  0.24949105    -0.54800
C108        C  0.01430254  0.11882401  0.22466225     0.09300
H109        H  0.07548231  0.11086652  0.32564339     0.13800
H110        H  0.05313126  0.07379527  0.21032501    -0.00500
H111        H  0.09216084  0.20259066  0.25846673     0.14100
H112        H  0.49004087  0.16652155  0.25055542     0.13900
C113        C  0.13905941  0.03636765  0.34891275     0.85700
C114        C  0.16219864  0.00319477  0.33767095    -0.54600
C115        C  0.14850488  0.32254325  0.30090787     0.08600
C116        C  0.10613622  0.33504344  0.28399203     0.19500
C117        C  0.12911812  0.07048595  0.31831526    -0.55300
C118        C  0.10416554  0.05536446  0.28550120     0.08700
C119        C  0.10459834  0.34535622  0.34606307    -0.54800
C120        C  0.09037015  0.31987257  0.31510108     0.09300
H121        H  0.18984204  0.99689488  0.35627880     0.13800
H122        H  0.09139005  0.32075418  0.25593440    -0.00500
H123        H  0.13400414  0.10527146  0.32509401     0.14100
H124        H  0.09553579  0.34373649  0.37003098     0.13900
C125        C  0.12690981  0.18002308  0.00189578    -0.03300
O126        O  0.15819897  0.01119629  0.96179959    -0.58600
C127        C  0.15584809  0.09511225  0.89244542     0.74000
O128        O  0.18503931  0.14633248  0.00353039    -0.59800
C129        C  0.15318388  0.01344515  0.99262290     0.74000
C130        C  0.26032546  0.06489328  0.96532338     0.76400
Cd131      Cd  0.18852810  0.07896361  0.96780128     1.37500
O132        O  0.15423175  0.05655337  0.90433164    -0.58600
O133        O  0.23203314  0.04444113  0.94565142    -0.57400
C134        C  0.15026920  0.14939053  0.98803346     0.76300
O135        O  0.25733675  0.08933967  0.99123118    -0.59800
O136        O  0.17247624  0.12456874  0.91579495    -0.58300
O137        O  0.17211789  0.04163192  0.01602787    -0.60700
O138        O  0.13503457  0.12205509  0.96228886    -0.57400
C139        C  0.12652888  0.31778849  0.00204047    -0.03300
O140        O  0.09428961  0.05705556  0.09912722    -0.58600
C141        C  0.09950111  0.01378580  0.01090610     0.74000
O142        O  0.99662934  0.09390836  0.01250772    -0.59800
C143        C  0.08893473  0.09397528  0.11160336     0.74000
C144        C  0.10342312  0.14940680  0.01586431     0.76400
Cd145      Cd  0.06357491  0.07945938  0.03524043     1.37500
O146        O  0.09620028  0.01343622  0.04258624    -0.58600
O147        O  0.11830240  0.12172983  0.04151946    -0.57400
C148        C  0.99205553  0.06418541  0.03402240     0.76300
O149        O  0.06866607  0.14685694  0.00042198    -0.59800
O150        O  0.07947141  0.04080751  0.98698106    -0.58300
O151        O  0.07097570  0.12283998  0.08841296    -0.58300
O152        O  0.01798080  0.03757768  0.04839252    -0.57400
C153        C  0.07558320  0.25080390  0.90960031     0.85700
C154        C  0.09817441  0.28938617  0.93229184    -0.54600
C155        C  0.10267331  0.28834283  0.97023493     0.08600
C156        C  0.08286182  0.24961063  0.98110892     0.19500
C157        C  0.09579332  0.20950229  0.93261465    -0.55300
C158        C  0.10083535  0.20981323  0.97037758     0.08700
C159        C  0.03972982  0.25451981  0.91795020    -0.54800
C160        C  0.04336388  0.25190152  0.95464241     0.09300
H161        H  0.10804459  0.98152983  0.91812177     0.13800
H162        H  0.08491081  0.24938887  0.01097542    -0.00500
H163        H  0.10765155  0.18420065  0.92085775     0.14100
H164        H  0.51282343  0.25880717  0.89743900     0.13900
C165        C  0.06848543  0.24886036  0.86504397     0.85700
C166        C  0.06304024  0.29159129  0.84167645    -0.54600
C167        C  0.05719357  0.28453875  0.80417884     0.08600
C168        C  0.05416376  0.23447380  0.79292474     0.19500
C169        C  0.03340032  0.22140247  0.84442804    -0.55300
C170        C  0.02462941  0.21541379  0.80671654     0.08700
C171        C  0.09935031  0.22685207  0.85506519    -0.54800
C172        C  0.08972622  0.21159401  0.81861411     0.09300
H173        H  0.06476386  0.32430440  0.85363409     0.13800
H174        H  0.04864489  0.22924718  0.76258332    -0.00500
H175        H  0.51648964  0.20904156  0.85910464     0.14100
H176        H  0.12456259  0.21664004  0.87680688     0.13900
C177        C  0.17740684  0.23405440  0.59396057     0.85700
C178        C  0.15689348  0.27511266  0.57060179    -0.54600
C179        C  0.14861702  0.27276920  0.53195209     0.08600
C180        C  0.16688013  0.23322522  0.52161886     0.19500
C181        C  0.15393024  0.19554173  0.57239852    -0.55300
C182        C  0.14754524  0.19546264  0.53388767     0.08700
C183        C  0.21222404  0.22986294  0.58418601    -0.54800
C184        C  0.20712483  0.23190008  0.54720557     0.09300
H185        H  0.14923574  0.30258108  0.58384648     0.13800
H186        H  0.16501447  0.23255034  0.49213997    -0.00500
H187        H  0.14389556  0.17229629  0.58781927     0.14100
H188        H  0.23947410  0.22557317  0.60478725     0.13900
C189        C  0.18589131  0.23602026  0.63901824     0.85700
C190        C  0.22169231  0.26244896  0.65946988    -0.54600
C191        C  0.23082809  0.26826384  0.69731841     0.08600
C192        C  0.20118820  0.25023052  0.71141495     0.19500
C193        C  0.19086358  0.19316838  0.66254958    -0.55300
C194        C  0.19738166  0.20021252  0.70026573     0.08700
C195        C  0.15579270  0.25897812  0.64949843    -0.54800
C196        C  0.16588826  0.27387064  0.68605594     0.09300
H197        H  0.23920427  0.27448910  0.64503337     0.13800
H198        H  0.20703680  0.25551484  0.74180481    -0.00500
H199        H  0.18868384  0.16040727  0.65059896     0.14100
H200        H  0.13070072  0.26987057  0.62792149     0.13900
C201        C  0.01812641  0.03209820  0.72198014     0.85700
C202        C  0.01841846  0.00321312  0.75489989    -0.54600
C203        C  0.05277456  0.32132990  0.77634792     0.08600
C204        C  0.08379787  0.00710775  0.76369596     0.19500
C205        C  0.04473275  0.07042866  0.73957289    -0.55300
C206        C  0.07874702  0.05781753  0.76238389     0.08700
C207        C  0.03803836  0.00284346  0.70223435    -0.54800
C208        C  0.07448969  0.99540656  0.72209421     0.09300
H209        H  0.49442707  0.32866633  0.76102660     0.13800
H210        H  0.11141317  0.99530370  0.78132637    -0.00500
H211        H  0.03701805  0.10443571  0.73513356     0.14100
H212        H  0.02523705  0.99187862  0.67360925     0.13900
C213        C  0.13911070  0.10738878  0.85276946     0.85700
C214        C  0.10866178  0.13975624  0.84773545    -0.54600
C215        C  0.09784103  0.16280877  0.81494955     0.08600
C216        C  0.11209520  0.13974320  0.78565937     0.19500
C217        C  0.12162213  0.07227194  0.82468346    -0.55300
C218        C  0.10548224  0.08812987  0.78921396     0.08700
C219        C  0.16739822  0.12919781  0.83936926    -0.54800
C220        C  0.15456160  0.14517169  0.80350927     0.09300
H221        H  0.09933187  0.14716651  0.87067001     0.13800
H222        H  0.09967102  0.15281562  0.75675677    -0.00500
H223        H  0.11868308  0.03869511  0.83307081     0.14100
H224        H  0.19602783  0.12803459  0.85702473     0.13900
C225        C  0.23741587  0.11896879  0.78256375     0.85700
C226        C  0.21759507  0.14776584  0.80287151    -0.54600
C227        C  0.18110929  0.15523907  0.78337604     0.08600
C228        C  0.17143104  0.14395936  0.74163461     0.19500
C229        C  0.21084293  0.08066724  0.76506580    -0.55300
C230        C  0.17664716  0.09328126  0.74279142     0.08700
C231        C  0.23654766  0.14813773  0.74952662    -0.54800
C232        C  0.20244319  0.16356686  0.72865429     0.09300
H233        H  0.23038810  0.15829047  0.83161077     0.13800
H234        H  0.14367469  0.15568738  0.72437450    -0.00500
H235        H  0.21870828  0.04665624  0.76923875     0.14100
H236        H  0.26105691  0.15647027  0.74408760     0.13900
C237        C  0.11604194  0.04393944  0.65303911     0.85700
C238        C  0.08818445  0.02136841  0.66643256    -0.54600
C239        C  0.10117102  0.00528229  0.70215068     0.08600
C240        C  0.14359843  0.01122580  0.71986129     0.19500
C241        C  0.13309417  0.07906673  0.68106926    -0.55300
C242        C  0.14965275  0.06302688  0.71640016     0.08700
C243        C  0.14687701  0.34604696  0.65769085    -0.54800
C244        C  0.15806789  0.32261012  0.69032298     0.09300
H245        H  0.05954397  0.02229893  0.64880437     0.13800
H246        H  0.15634224  0.33167254  0.74867184    -0.00500
H247        H  0.13566583  0.11272730  0.67264856     0.14100
H248        H  0.15589323  0.33901938  0.63445595     0.13900
C249        C  0.37641218  0.13625545  0.00187288    -0.03300
O250        O  0.40632486  0.25958760  0.90448230    -0.58600
C251        C  0.40355375  0.30186910  0.99329854     0.74000
O252        O  0.43437218  0.17004207  0.00346274    -0.59800
C253        C  0.40804953  0.22114610  0.89252507     0.74000
C254        C  0.51100717  0.24976393  0.96680899     0.76400
Cd255      Cd  0.43892205  0.23662035  0.96812646     1.37500
O256        O  0.40763677  0.30340354  0.96199836    -0.58600
O257        O  0.48421447  0.27442842  0.95041259    -0.57400
C258        C  0.39961410  0.16702453  0.98786772     0.76300
O259        O  0.50675975  0.22179295  0.98985454    -0.59800
O260        O  0.42320397  0.27426148  0.01686674    -0.58300
O261        O  0.42441831  0.19157408  0.91586326    -0.58300
O262        O  0.38448978  0.19430225  0.96200430    -0.57400
O263        O  0.34066373  0.25428556  0.10147835    -0.58600
C264        C  0.35050258  0.30179053  0.01278751     0.74000
O265        O  0.31805866  0.16899374  0.00062005    -0.59800
C266        C  0.33879689  0.21494327  0.11160186     0.74000
C267        C  0.24206994  0.25158628  0.03755189     0.76400
Cd268      Cd  0.31343258  0.23567164  0.03653250     1.37500
O269        O  0.34882211  0.30082124  0.04519450    -0.58600
O270        O  0.26916909  0.27588344  0.05395519    -0.57400
C271        C  0.35288667  0.16654179  0.01597512     0.76300
O272        O  0.24569891  0.22370112  0.01413193    -0.59800
O273        O  0.32913206  0.27591117  0.98875974    -0.58300
O274        O  0.32479052  0.18621019  0.08659016    -0.58300
O275        O  0.36785006  0.19407572  0.04171520    -0.57400
C276        C  0.37691382  0.33112384  0.00272779    -0.03300
C277        C  0.32590150  0.06471893  0.91011996     0.85700
C278        C  0.34554096  0.10627989  0.93295578    -0.54600
C279        C  0.35045904  0.10607166  0.97064101     0.08600
C280        C  0.33279210  0.06595682  0.98154065     0.19500
C281        C  0.34875846  0.02642666  0.93308052    -0.55300
C282        C  0.35308316  0.02745464  0.97105107     0.08700
C283        C  0.28997865  0.06036074  0.91818556    -0.54800
C284        C  0.29329644  0.06313712  0.95478887     0.09300
H285        H  0.35711876  0.13179204  0.92108318     0.13800
H286        H  0.33479917  0.06624770  0.01139517    -0.00500
H287        H  0.35859464  0.33458840  0.91886111     0.14100
H288        H  0.26342512  0.05511100  0.89655087     0.13900
C289        C  0.31895587  0.06720830  0.86563443     0.85700
C290        C  0.28412004  0.09514732  0.84536744    -0.54600
C291        C  0.27524537  0.10159037  0.80771132     0.08600
C292        C  0.30457897  0.08248870  0.79361314     0.19500
C293        C  0.31318180  0.02479458  0.84194399    -0.55300
C294        C  0.30733811  0.03230732  0.80451524     0.08700
C295        C  0.34992236  0.08928356  0.85577638    -0.54800
C296        C  0.34042940  0.10478885  0.81935137     0.09300
H297        H  0.26700161  0.10771634  0.85998535     0.13800
H298        H  0.29899609  0.08803925  0.76329220    -0.00500
H299        H  0.31483842  0.32547983  0.85399816     0.14100
H300        H  0.37523167  0.09906910  0.87761303     0.13900
C301        C  0.42764560  0.08290188  0.59398519     0.85700
C302        C  0.40288761  0.12052071  0.57269374    -0.54600
C303        C  0.39682318  0.12146543  0.53434665     0.08600
C304        C  0.41712734  0.08496453  0.52182654     0.19500
C305        C  0.40812287  0.04140487  0.57053873    -0.55300
C306        C  0.39972465  0.04442620  0.53188201     0.08700
C307        C  0.46239637  0.08902120  0.58428890    -0.54800
C308        C  0.45731088  0.08762606  0.54730703     0.09300
H309        H  0.39117209  0.14188917  0.58798934     0.13800
H310        H  0.41547586  0.08616446  0.49247896    -0.00500
H311        H  0.40048683  0.01347466  0.58349512     0.14100
H312        H  0.98887876  0.09319327  0.60469086     0.13900
C313        C  0.43623981  0.08087237  0.63883560     0.85700
C314        C  0.44149386  0.12395458  0.66194277    -0.54600
C315        C  0.44808951  0.11736318  0.69967174     0.08600
C316        C  0.45176099  0.06746064  0.71125760     0.19500
C317        C  0.47194251  0.05438513  0.65918669    -0.55300
C318        C  0.48115280  0.04892063  0.69710274     0.08700
C319        C  0.40612280  0.05828933  0.64955498    -0.54800
C320        C  0.41635465  0.04372074  0.68626680     0.09300
H321        H  0.43928941  0.15655409  0.64964285     0.13800
H322        H  0.45777153  0.06251309  0.74171940    -0.00500
H323        H  0.98834801  0.04252494  0.64401129     0.14100
H324        H  0.38114001  0.04703265  0.62798340     0.13900
C325        C  0.48784489  0.19842833  0.78176893     0.85700
C326        C  0.48701956  0.17009099  0.74833853    -0.54600
C327        C  0.45295612  0.15437649  0.72758049     0.08600
C328        C  0.42191165  0.17330725  0.74084056     0.19500
C329        C  0.46108260  0.23672731  0.76480030    -0.55300
C330        C  0.42690517  0.22405983  0.74246125     0.08700
C331        C  0.46828789  0.16867143  0.80176016    -0.54800
C332        C  0.43175800  0.16137868  0.78246568     0.09300
H333        H  0.01045159  0.16164983  0.74224278     0.13800
H334        H  0.39418026  0.16143797  0.72360781    -0.00500
H335        H  0.46877918  0.27077332  0.76942147     0.14100
H336        H  0.48126977  0.15741647  0.83028732     0.13900
C337        C  0.36583834  0.27417441  0.65339181     0.85700
C338        C  0.39793779  0.97142948  0.65838971    -0.54600
C339        C  0.40888480  0.99492287  0.69094351     0.08600
C340        C  0.39387117  0.30631180  0.72032826     0.19500
C341        C  0.38261867  0.23876745  0.68123956    -0.55300
C342        C  0.39955557  0.25447680  0.71661246     0.08700
C343        C  0.33825905  0.29698974  0.66695476    -0.54800
C344        C  0.35147898  0.31262888  0.70279833     0.09300
H345        H  0.40731533  0.97832255  0.63533520     0.13800
H346        H  0.40669397  0.31925311  0.74922357    -0.00500
H347        H  0.38495463  0.20519339  0.67254958     0.14100
H348        H  0.30959874  0.29643703  0.64937048     0.13900
C349        C  0.26869580  0.28489600  0.72287824     0.85700
C350        C  0.28848477  0.31461766  0.70328515    -0.54600
C351        C  0.32499284  0.32193148  0.72303116     0.08600
C352        C  0.33453691  0.30957818  0.76453949     0.19500
C353        C  0.29535085  0.24640427  0.73995567    -0.55300
C354        C  0.32943089  0.25879680  0.76287600     0.08700
C355        C  0.26926383  0.31323358  0.75616196    -0.54800
C356        C  0.30323733  0.32864737  0.77717331     0.09300
H357        H  0.27550601  0.32596430  0.67478085     0.13800
H358        H  0.36220006  0.32131994  0.78212626    -0.00500
H359        H  0.28767151  0.21244150  0.73492891     0.14100
H360        H  0.24463944  0.32181702  0.76135517     0.13900
C361        C  0.39105665  0.20894963  0.85287631     0.85700
C362        C  0.41896858  0.18753899  0.83887146    -0.54600
C363        C  0.40559049  0.17149031  0.80303881     0.08600
C364        C  0.36299184  0.17658515  0.78585342     0.19500
C365        C  0.37290076  0.24397741  0.82493820    -0.55300
C366        C  0.35626020  0.22819738  0.78951594     0.08700
C367        C  0.36100765  0.17621706  0.84850064    -0.54800
C368        C  0.34948775  0.15331705  0.81571304     0.09300
H369        H  0.44771768  0.18895766  0.85611635     0.13800
H370        H  0.35021271  0.16344447  0.75702260    -0.00500
H371        H  0.37005750  0.27748021  0.83348101     0.14100
H372        H  0.35219840  0.16883257  0.87178653     0.13900
O373        O  0.35349187  0.19014477  0.55087051    -0.58600
C374        C  0.34811629  0.26248313  0.61392911     0.74000
O375        O  0.34454107  0.32107768  0.54498925    -0.59800
C376        C  0.35099054  0.18579905  0.51716599     0.74000
C377        C  0.23937602  0.23457424  0.53554402     0.76400
Cd378      Cd  0.31329508  0.24981489  0.53936928     1.37500
O379        O  0.34727652  0.22362353  0.60163838    -0.58600
O380        O  0.26465719  0.20663192  0.54780201    -0.57400
C381        C  0.35168356  0.31564512  0.51525884     0.76300
O382        O  0.24593265  0.26765504  0.51841785    -0.59800
O383        O  0.33258364  0.29303200  0.59128899    -0.58300
O384        O  0.32844553  0.21079253  0.49325645    -0.58300
O385        O  0.33593197  0.28318687  0.49488489    -0.57400
C386        C  0.37079560  0.15061324  0.50381518    -0.03300
O387        O  0.38092056  0.18819867  0.45290068    -0.58600
C388        C  0.40584432  0.25659040  0.38825724     0.74000
O389        O  0.42339467  0.30079570  0.50678520    -0.59800
C390        C  0.39332372  0.17679483  0.48696949     0.74000
C391        C  0.49748142  0.23394988  0.46446408     0.76400
Cd392      Cd  0.42663431  0.24477441  0.46213869     1.37500
O393        O  0.39638591  0.22137239  0.40030635    -0.58600
O394        O  0.47462050  0.20301988  0.45274636    -0.57400
C395        C  0.39506090  0.32013021  0.48486206     0.76300
O396        O  0.48894996  0.26561783  0.48151014    -0.59800
O397        O  0.42690469  0.28350225  0.41111662    -0.58300
O398        O  0.42300377  0.19440424  0.50800038    -0.58300
O399        O  0.38303260  0.30681098  0.45132175    -0.57400
C400        C  0.37226284  0.01564642  0.49999921    -0.03300
C401        C  0.28332860  0.08298961  0.45630931     0.85700
C402        C  0.30571927  0.04101664  0.46775657    -0.54600
C403        C  0.34142151  0.04298994  0.46857955     0.08600
C404        C  0.34655116  0.08588986  0.44761270     0.19500
C405        C  0.30736095  0.11858632  0.47864245    -0.55300
C406        C  0.34114666  0.12203441  0.47501462     0.08700
C407        C  0.28001216  0.09209300  0.41632021    -0.54800
C408        C  0.31202672  0.09051965  0.40908330     0.09300
H409        H  0.29458520  0.01439852  0.47935205     0.13800
H410        H  0.37245866  0.08745412  0.44194090    -0.00500
H411        H  0.29858219  0.13684123  0.49853905     0.14100
H412        H  0.25335235  0.09777346  0.39503098     0.13900
C413        C  0.30891106  0.08354777  0.36660053     0.85700
C414        C  0.30695291  0.12476779  0.34237788    -0.54600
C415        C  0.30290718  0.11593424  0.30561604     0.08600
C416        C  0.29932686  0.06538289  0.29568369     0.19500
C417        C  0.27343861  0.05737853  0.34425254    -0.55300
C418        C  0.26774121  0.04844042  0.30739972     0.08700
C419        C  0.33956635  0.05691531  0.36053326    -0.54800
C420        C  0.33304645  0.04214650  0.32402650     0.09300
H421        H  0.30831298  0.15804274  0.35320213     0.13800
H422        H  0.29570210  0.05871945  0.26593467    -0.00500
H423        H  0.25356285  0.04711439  0.35652496     0.14100
H424        H  0.36270492  0.04656779  0.38460384     0.13900
C425        C  0.43090971  0.06748670  0.09405284     0.85700
C426        C  0.41001271  0.10843079  0.07112288    -0.54600
C427        C  0.40311245  0.10693982  0.03306261     0.08600
C428        C  0.42066494  0.06701479  0.02200924     0.19500
C429        C  0.40766747  0.02845176  0.07240613    -0.55300
C430        C  0.40177721  0.02858361  0.03423308     0.08700
C431        C  0.46596159  0.06424717  0.08447856    -0.54800
C432        C  0.46058031  0.06536136  0.04726896     0.09300
H433        H  0.39993464  0.13489756  0.08347283     0.13800
H434        H  0.41765678  0.06670716  0.99188076    -0.00500
H435        H  0.39697789  0.33647644  0.08649471     0.14100
H436        H  0.99314301  0.05969253  0.10491726     0.13900
C437        C  0.43872879  0.06939258  0.13848935     0.85700
C438        C  0.47393268  0.09609966  0.16066854    -0.54600
C439        C  0.48063111  0.10038542  0.19816139     0.08600
C440        C  0.44991443  0.08210008  0.21012114     0.19500
C441        C  0.44331578  0.02638341  0.16106808    -0.55300
C442        C  0.44733510  0.03230118  0.19850507     0.08700
C443        C  0.40714568  0.09081440  0.14726406    -0.54800
C444        C  0.41495845  0.10491298  0.18356128     0.09300
H445        H  0.99191929  0.10985474  0.14715412     0.13800
H446        H  0.45427963  0.08726102  0.24025608    -0.00500
H447        H  0.44217522  0.32703028  0.14786143     0.14100
H448        H  0.38181945  0.09978271  0.12510908     0.13900
C449        C  0.26244008  0.19470749  0.22199619     0.85700
C450        C  0.26351192  0.16678280  0.25577830    -0.54600
C451        C  0.29779549  0.15187629  0.27676599     0.08600
C452        C  0.32860906  0.17134085  0.26336749     0.19500
C453        C  0.28830941  0.23364017  0.23819732    -0.55300
C454        C  0.32235905  0.22229789  0.26109446     0.08700
C455        C  0.28215315  0.16501566  0.20247011    -0.54800
C456        C  0.31864659  0.15730500  0.22203416     0.09300
H457        H  0.23910024  0.15845825  0.26149043     0.13800
H458        H  0.35655945  0.16045292  0.28083791    -0.00500
H459        H  0.27956482  0.26737975  0.23363185     0.14100
H460        H  0.26831123  0.15248612  0.17454717     0.13900
C461        C  0.38776182  0.27112669  0.35003674     0.85700
C462        C  0.36079780  0.30575250  0.35074507    -0.54600
C463        C  0.34577154  0.99559132  0.31883455     0.08600
C464        C  0.35376278  0.30555444  0.28504671     0.19500
C465        C  0.36548243  0.23750576  0.32298884    -0.55300
C466        C  0.34687837  0.25400297  0.28851428     0.08700
C467        C  0.41339686  0.29162582  0.33231252    -0.54800
C468        C  0.39633463  0.30779525  0.29720711     0.09300
H469        H  0.35589938  0.97838906  0.37650632     0.13800
H470        H  0.33901938  0.32011761  0.25707887    -0.00500
H471        H  0.36341791  0.20365866  0.33124421     0.14100
H472        H  0.44283196  0.28854852  0.34479218     0.13900
C473        C  0.44525446  0.32741355  0.22524958     0.85700
C474        C  0.43104176  0.28284118  0.20647633    -0.54600
C475        C  0.42445457  0.25102124  0.22946476     0.08600
C476        C  0.44030857  0.26478660  0.27066301     0.19500
C477        C  0.41961858  0.33837946  0.24756397    -0.55300
C478        C  0.41759767  0.30584399  0.27160668     0.08700
C479        C  0.48209675  0.31516918  0.25467654    -0.54800
C480        C  0.48000236  0.28180514  0.27802065     0.09300
H481        H  0.42145161  0.27879664  0.17637115     0.13800
H482        H  0.43895062  0.23777558  0.28985431    -0.00500
H483        H  0.40515561  0.03699698  0.24484506     0.14100
H484        H  0.00778098  0.33084250  0.25615768     0.13900
C485        C  0.35541737  0.20107597  0.15091132     0.85700
C486        C  0.33099291  0.17160551  0.16372654    -0.54600
C487        C  0.34528419  0.15939056  0.20075591     0.08600
C488        C  0.38763026  0.17068020  0.21770122     0.19500
C489        C  0.36668638  0.23699749  0.17987259    -0.55300
C490        C  0.39008327  0.22275583  0.21392105     0.08700
C491        C  0.38980322  0.17531477  0.15551378    -0.54800
C492        C  0.40348293  0.15203364  0.18807387     0.09300
H493        H  0.30285695  0.16732846  0.14546166     0.13800
H494        H  0.40169897  0.15806674  0.24652459    -0.00500
H495        H  0.36277652  0.27150244  0.17181644     0.14100
H496        H  0.39939317  0.17130122  0.13224634     0.13900
C497        C  0.12201546  0.49919025  0.50289154    -0.03300
O498        O  0.09695310  0.42841703  0.60129866    -0.58600
C499        C  0.10234116  0.46387580  0.51637770     0.74000
O500        O  0.09448006  0.66423814  0.54476824    -0.59800
C501        C  0.09808137  0.38946502  0.61354443     0.74000
C502        C  0.98884395  0.41747764  0.53510261     0.76400
Cd503      Cd  0.06295026  0.40194592  0.53882298     1.37500
O504        O  0.10278418  0.46162289  0.54957992    -0.58600
O505        O  0.01341197  0.44666129  0.54501649    -0.57400
C506        C  0.10107730  0.66882390  0.51463593     0.76300
O507        O  0.99606021  0.38301946  0.52011708    -0.59800
O508        O  0.08079718  0.43779994  0.49267657    -0.58300
O509        O  0.08266890  0.35894150  0.59084608    -0.58300
O510        O  0.08365981  0.36691796  0.49329574    -0.57400
O511        O  0.13949706  0.41685109  0.39743346    -0.58600
C512        C  0.14494836  0.47325055  0.48614062     0.74000
O513        O  0.17255840  0.68289162  0.50576958    -0.59800
C514        C  0.15573987  0.38655820  0.38634794     0.74000
C515        C  0.24800701  0.41544866  0.46234405     0.76400
Cd516      Cd  0.17641562  0.40406886  0.45986007     1.37500
O517        O  0.13568733  0.46730801  0.45115178    -0.58600
O518        O  0.22559505  0.44713861  0.45243280    -0.57400
C519        C  0.14437355  0.66304424  0.48408990     0.76300
O520        O  0.23861825  0.38222408  0.47711486    -0.59800
O521        O  0.17190576  0.45122974  0.50748115    -0.58300
O522        O  0.18300971  0.36757978  0.40973176    -0.58300
O523        O  0.13199526  0.34247256  0.45014060    -0.57400
C524        C  0.12152276  0.63467430  0.49993614    -0.03300
C525        C  0.17766321  0.58296068  0.09357809     0.85700
C526        C  0.15454938  0.62133272  0.07126163    -0.54600
C527        C  0.15008869  0.62118334  0.03333863     0.08600
C528        C  0.17017279  0.58311079  0.02211855     0.19500
C529        C  0.15809833  0.54163558  0.07042830    -0.55300
C530        C  0.15268962  0.54267908  0.03266735     0.08700
C531        C  0.21356878  0.58753642  0.08534461    -0.54800
C532        C  0.20971343  0.58584589  0.04847318     0.09300
H533        H  0.14389609  0.31311219  0.08558599     0.13800
H534        H  0.16801074  0.58334271  0.99221877    -0.00500
H535        H  0.14735651  0.51544850  0.08234433     0.14100
H536        H  0.24032463  0.59183380  0.10687149     0.13900
C537        C  0.18387089  0.58030809  0.13776443     0.85700
C538        C  0.18943680  0.62262515  0.16151932    -0.54600
C539        C  0.19409086  0.61511492  0.19865949     0.08600
C540        C  0.19586868  0.56475476  0.20931097     0.19500
C541        C  0.21814977  0.55210754  0.15863533    -0.55300
C542        C  0.22546373  0.54500866  0.19604523     0.08700
C543        C  0.15213721  0.55860451  0.14645392    -0.54800
C544        C  0.16040633  0.54286256  0.18261821     0.09300
H545        H  0.18852733  0.65548749  0.14999375     0.13800
H546        H  0.20052692  0.55907372  0.23943761    -0.00500
H547        H  0.23632711  0.54030348  0.14486536     0.14100
H548        H  0.12686120  0.55004131  0.12403139     0.13900
C549        C  0.03338778  0.56584587  0.45734454     0.85700
C550        C  0.05790154  0.52992584  0.47844003    -0.54600
C551        C  0.09155862  0.52743049  0.47423518     0.08600
C552        C  0.09584906  0.56456063  0.44700445     0.19500
C553        C  0.05553916  0.60776786  0.46915764    -0.55300
C554        C  0.09080412  0.60688100  0.46883715     0.08700
C555        C  0.02895908  0.55844575  0.41694937    -0.54800
C556        C  0.06046142  0.56021382  0.40895033     0.09300
H557        H  0.04948469  0.51091503  0.49821886     0.13800
H558        H  0.12154505  0.56385538  0.44081703    -0.00500
H559        H  0.04462661  0.63350847  0.48179621     0.14100
H560        H  0.00199196  0.55317210  0.39610280     0.13900
C561        C  0.05626529  0.56574011  0.36614822     0.85700
C562        C  0.01933688  0.58859014  0.34222963    -0.54600
C563        C  0.01398764  0.59466183  0.30518800     0.08600
C564        C  0.04680317  0.58039576  0.29489640     0.19500
C565        C  0.05679873  0.52375477  0.34384702    -0.55300
C566        C  0.05237564  0.53067683  0.30644540     0.08700
C567        C  0.08557670  0.59419814  0.35949003    -0.54800
C568        C  0.07901743  0.60662940  0.32253822     0.09300
H569        H  0.49954458  0.60324598  0.35377536     0.13800
H570        H  0.04320355  0.58642430  0.26503550    -0.00500
H571        H  0.05965730  0.49173524  0.35702591     0.14100
H572        H  0.10739893  0.60787519  0.38325423     0.13900
C573        C  0.23169044  0.36372444  0.28102498     0.85700
C574        C  0.23162392  0.66828069  0.24769595    -0.54600
C575        C  0.19789865  0.65189673  0.22638132     0.08600
C576        C  0.16641215  0.33711172  0.23888645     0.19500
C577        C  0.20465686  0.40118340  0.26375399    -0.55300
C578        C  0.17120957  0.38811830  0.24042489     0.08700
C579        C  0.21225629  0.33336781  0.30042677    -0.54800
C580        C  0.17602387  0.32360837  0.28034649     0.09300
H581        H  0.25666757  0.66031015  0.24304876     0.13800
H582        H  0.13845380  0.65822835  0.22057906    -0.00500
H583        H  0.21202299  0.43534771  0.26820095     0.14100
H584        H  0.22636440  0.32204071  0.32868207     0.13900
C585        C  0.10713060  0.43892633  0.15089027     0.85700
C586        C  0.13598816  0.47245235  0.15299574    -0.54600
C587        C  0.15014382  0.49463499  0.18585081     0.08600
C588        C  0.14008861  0.47046193  0.21750927     0.19500
C589        C  0.12771440  0.40367311  0.17781466    -0.55300
C590        C  0.14596053  0.41910453  0.21299892     0.08700
C591        C  0.08112390  0.45959052  0.16826324    -0.54800
C592        C  0.09787919  0.47446159  0.20397621     0.09300
H593        H  0.14247964  0.48007517  0.12838769     0.13800
H594        H  0.15441960  0.48371997  0.24606733    -0.00500
H595        H  0.12955334  0.36999753  0.16907369     0.14100
H596        H  0.05161964  0.45713769  0.15518971     0.13900
C597        C  0.05216214  0.49377134  0.27819940     0.85700
C598        C  0.06568006  0.44824222  0.29543791    -0.54600
C599        C  0.07064039  0.41684316  0.27115572     0.08600
C600        C  0.05378418  0.43241311  0.23032682     0.19500
C601        C  0.07672039  0.50484717  0.25483629    -0.55300
C602        C  0.07675126  0.47304800  0.22943787     0.08700
C603        C  0.01441417  0.48322196  0.24936434    -0.54800
C604        C  0.01493028  0.45084295  0.22455036     0.09300
H605        H  0.07640956  0.44326773  0.32545361     0.13800
H606        H  0.05381635  0.40607732  0.21008245    -0.00500
H607        H  0.09252544  0.53502671  0.25805948     0.14100
H608        H  0.48871114  0.50000973  0.24986697     0.13900
C609        C  0.13959736  0.36889900  0.34864631     0.85700
C610        C  0.16262022  0.33526267  0.33772306    -0.54600
C611        C  0.14794198  0.65635153  0.30068621     0.08600
C612        C  0.10560591  0.66891327  0.28385919     0.19500
C613        C  0.12988618  0.40280919  0.31785761    -0.55300
C614        C  0.10486929  0.38762119  0.28514483     0.08700
C615        C  0.10387977  0.67837761  0.34593243    -0.54800
C616        C  0.08985747  0.65307162  0.31482390     0.09300
H617        H  0.19012326  0.32857157  0.35651186     0.13800
H618        H  0.09087701  0.65500207  0.25565007    -0.00500
H619        H  0.13487680  0.43762710  0.32444837     0.14100
H620        H  0.09474442  0.67639593  0.36983874     0.13900
C621        C  0.12652155  0.51302287  0.00123746    -0.03300
O622        O  0.15865402  0.34415984  0.96214013    -0.58600
C623        C  0.15662113  0.42829055  0.89209250     0.74000
O624        O  0.18464729  0.47942941  0.00285944    -0.59800
C625        C  0.15354095  0.34669917  0.99290535     0.74000
C626        C  0.26048617  0.39862710  0.96533795     0.76400
Cd627      Cd  0.18864790  0.41211997  0.96753750     1.37500
O628        O  0.15556685  0.38950767  0.90379124    -0.58600
O629        O  0.23265970  0.37675117  0.94659657    -0.57400
C630        C  0.14986943  0.48235850  0.98734950     0.76300
O631        O  0.25708356  0.42422767  0.99036080    -0.59800
O632        O  0.17251145  0.45787507  0.91563236    -0.58300
O633        O  0.17233370  0.37515183  0.01611964    -0.60700
O634        O  0.13470079  0.45490412  0.96164872    -0.57400
C635        C  0.12629696  0.65091994  0.00169433    -0.03300
O636        O  0.09467442  0.38997823  0.09872074    -0.58600
C637        C  0.09973659  0.34708360  0.01105555     0.74000
O638        O  0.99663696  0.42676733  0.01270943    -0.59800
C639        C  0.08923252  0.42677416  0.11130624     0.74000
C640        C  0.10299203  0.48240124  0.01517699     0.76400
Cd641      Cd  0.06343486  0.41238470  0.03496318     1.37500
O642        O  0.09563446  0.34601232  0.04236965    -0.58600
O643        O  0.11785566  0.45504875  0.04110574    -0.57400
C644        C  0.99202127  0.39644212  0.03368861     0.76300
O645        O  0.06827203  0.47947079  0.99947037    -0.59800
O646        O  0.08024594  0.37454736  0.98720838    -0.58300
O647        O  0.07100918  0.45559857  0.08823199    -0.58300
O648        O  0.01783821  0.36952493  0.04746932    -0.57400
C649        C  0.07514920  0.58397977  0.90908183     0.85700
C650        C  0.09770711  0.62259963  0.93182383    -0.54600
C651        C  0.10223643  0.62154145  0.96980692     0.08600
C652        C  0.08249883  0.58270073  0.98061124     0.19500
C653        C  0.09537096  0.54266590  0.93205523    -0.55300
C654        C  0.10047718  0.54293414  0.96981299     0.08700
C655        C  0.03929213  0.58763258  0.91743017    -0.54800
C656        C  0.04300220  0.58491685  0.95412207     0.09300
H657        H  0.10841508  0.31462860  0.91854937     0.13800
H658        H  0.08455038  0.58242167  0.01047767    -0.00500
H659        H  0.10706869  0.51725261  0.92023900     0.14100
H660        H  0.51328329  0.59258340  0.89794897     0.13900
C661        C  0.06811088  0.58192381  0.86453810     0.85700
C662        C  0.06278374  0.62456105  0.84106459    -0.54600
C663        C  0.05700548  0.61735493  0.80359935     0.08600
C664        C  0.05393741  0.56724266  0.79247183     0.19500
C665        C  0.03301502  0.55450995  0.84393338    -0.55300
C666        C  0.02430605  0.54841101  0.80626319     0.08700
C667        C  0.09897174  0.55971303  0.85469584    -0.54800
C668        C  0.08950159  0.54442081  0.81828356     0.09300
H669        H  0.06446617  0.65732590  0.85291670     0.13800
H670        H  0.04846277  0.56190030  0.76215225    -0.00500
H671        H  0.51644923  0.54297257  0.85926991     0.14100
H672        H  0.12420589  0.54966218  0.87648657     0.13900
C673        C  0.17761894  0.56713445  0.59374157     0.85700
C674        C  0.15701779  0.60812099  0.57036044    -0.54600
C675        C  0.14877415  0.60573044  0.53172854     0.08600
C676        C  0.16711060  0.56624430  0.52141974     0.19500
C677        C  0.15413899  0.52860783  0.57221382    -0.55300
C678        C  0.14780485  0.52846840  0.53371274     0.08700
C679        C  0.21246571  0.56300691  0.58397049    -0.54800
C680        C  0.20736302  0.56504534  0.54698596     0.09300
H681        H  0.14917363  0.63555346  0.58351257     0.13800
H682        H  0.16522780  0.56557103  0.49193482    -0.00500
H683        H  0.14387175  0.50561913  0.58762688     0.14100
H684        H  0.23973542  0.55890543  0.60457605     0.13900
C685        C  0.18608794  0.56911338  0.63877767     0.85700
C686        C  0.22181458  0.59567962  0.65926791    -0.54600
C687        C  0.23093611  0.60141442  0.69714414     0.08600
C688        C  0.20133786  0.58318029  0.71117759     0.19500
C689        C  0.19121349  0.52622916  0.66222829    -0.55300
C690        C  0.19771344  0.53321620  0.69992775     0.08700
C691        C  0.15589700  0.59183627  0.64928795    -0.54800
C692        C  0.16596812  0.60671839  0.68585706     0.09300
H693        H  0.23929232  0.60780976  0.64482588     0.13800
H694        H  0.20716846  0.58835156  0.74157874    -0.00500
H695        H  0.18911615  0.49349347  0.65024300     0.14100
H696        H  0.13078433  0.60268224  0.62771233     0.13900
C697        C  0.01848367  0.36551134  0.72208501     0.85700
C698        C  0.01885544  0.33683724  0.75520778    -0.54600
C699        C  0.05249069  0.65406232  0.77567551     0.08600
C700        C  0.08417605  0.34033567  0.76374273     0.19500
C701        C  0.04528263  0.40379348  0.73951158    -0.55300
C702        C  0.07931378  0.39108220  0.76228798     0.08700
C703        C  0.03822172  0.33593855  0.70239498    -0.54800
C704        C  0.07468403  0.32846588  0.72215669     0.09300
H705        H  0.49436802  0.66219831  0.76097346     0.13800
H706        H  0.11178112  0.32839939  0.78127093    -0.00500
H707        H  0.03769106  0.43785979  0.73498918     0.14100
H708        H  0.02531530  0.32491633  0.67379632     0.13900
C709        C  0.13992749  0.44071765  0.85244541     0.85700
C710        C  0.10920249  0.47271070  0.84742663    -0.54600
C711        C  0.09814401  0.49578126  0.81464108     0.08600
C712        C  0.11264056  0.47308416  0.78537181     0.19500
C713        C  0.12277215  0.40553059  0.82429827    -0.55300
C714        C  0.10637463  0.42137861  0.78886224     0.08700
C715        C  0.16804737  0.46308236  0.83915668    -0.54800
C716        C  0.15510215  0.47897040  0.80326745     0.09300
H717        H  0.09984237  0.47987667  0.87038805     0.13800
H718        H  0.10014596  0.48615597  0.75647771    -0.00500
H719        H  0.12002780  0.37191989  0.83271807     0.14100
H720        H  0.19667365  0.46227481  0.85685557     0.13900
C721        C  0.23773124  0.45216658  0.78217420     0.85700
C722        C  0.21808309  0.48133607  0.80243641    -0.54600
C723        C  0.18160215  0.48890087  0.78304550     0.08600
C724        C  0.17177628  0.47740636  0.74136756     0.19500
C725        C  0.21095986  0.41393354  0.76483894    -0.55300
C726        C  0.17675761  0.42672684  0.74262276     0.08700
C727        C  0.23686322  0.48102313  0.74897410    -0.54800
C728        C  0.20277481  0.49658036  0.72820828     0.09300
H729        H  0.23098705  0.49211215  0.83109052     0.13800
H730        H  0.14406114  0.48931697  0.72417483    -0.00500
H731        H  0.21870188  0.37987626  0.76899613     0.14100
H732        H  0.26133244  0.48908426  0.74333851     0.13900
C733        C  0.11582679  0.37753136  0.65300908     0.85700
C734        C  0.08813488  0.35455978  0.66638943    -0.54600
C735        C  0.10124314  0.33849469  0.70211460     0.08600
C736        C  0.14362361  0.34482454  0.71982697     0.19500
C737        C  0.13267238  0.41270370  0.68108912    -0.55300
C738        C  0.14944117  0.39663886  0.71640285     0.08700
C739        C  0.14710116  0.67889476  0.65746955    -0.54800
C740        C  0.15814045  0.65547358  0.69009643     0.09300
H741        H  0.05949125  0.35519406  0.64875319     0.13800
H742        H  0.15638939  0.66476401  0.74844854    -0.00500
H743        H  0.13513637  0.44637358  0.67263674     0.14100
H744        H  0.15614458  0.67175636  0.63427257     0.13900
C745        C  0.37692699  0.46916242  0.00185019    -0.03300
O746        O  0.40679499  0.59317812  0.90507460    -0.58600
C747        C  0.40418928  0.63516907  0.99389501     0.74000
O748        O  0.43509278  0.50317907  0.00424934    -0.59800
C749        C  0.40870741  0.55490609  0.89289047     0.74000
C750        C  0.51180008  0.58323164  0.96747585     0.76400
Cd751      Cd  0.43974618  0.56982680  0.96875639     1.37500
O752        O  0.40801062  0.63614663  0.96247873    -0.58600
O753        O  0.48529456  0.60864976  0.95193113    -0.57400
C754        C  0.40041789  0.49982730  0.98810198     0.76300
O755        O  0.50736842  0.55446988  0.98982445    -0.59800
O756        O  0.42401016  0.60782555  0.01764232    -0.58300
O757        O  0.42553028  0.52539460  0.91606018    -0.58300
O758        O  0.38554400  0.52685599  0.96197047    -0.57400
O759        O  0.34233439  0.58670186  0.10076743    -0.58600
C760        C  0.35092877  0.63540784  0.01300448     0.74000
O761        O  0.31859822  0.50245161  0.00006242    -0.59800
C762        C  0.33849718  0.54793466  0.11102059     0.74000
C763        C  0.24198388  0.58490509  0.03681304     0.76400
Cd764      Cd  0.31362222  0.56893505  0.03607047     1.37500
O765        O  0.34940814  0.63397008  0.04547057    -0.58600
O766        O  0.26914400  0.60900062  0.05352758    -0.57400
C767        C  0.35336042  0.49963312  0.01577694     0.76300
O768        O  0.24566274  0.55740620  0.01314718    -0.59800
O769        O  0.32929450  0.60997779  0.98873528    -0.58300
O770        O  0.32272948  0.51970768  0.08611486    -0.58300
O771        O  0.36820906  0.52698988  0.04167995    -0.57400
C772        C  0.37750657  0.66464727  0.00310817    -0.03300
C773        C  0.32589408  0.39825564  0.90998508     0.85700
C774        C  0.34596395  0.43947925  0.93294242    -0.54600
C775        C  0.35088358  0.43916894  0.97058744     0.08600
C776        C  0.33284662  0.39926319  0.98136901     0.19500
C777        C  0.34834030  0.35959445  0.93272155    -0.55300
C778        C  0.35268804  0.36042830  0.97068643     0.08700
C779        C  0.28992496  0.39442124  0.91803644    -0.54800
C780        C  0.29333748  0.39705322  0.95465966     0.09300
H781        H  0.35774933  0.46485999  0.92118670     0.13800
H782        H  0.33485595  0.39948876  0.01122305    -0.00500
H783        H  0.35987410  0.66839499  0.91916475     0.14100
H784        H  0.26330574  0.38940683  0.89645130     0.13900
C785        C  0.31910177  0.40075267  0.86561514     0.85700
C786        C  0.28430196  0.42863269  0.84512150    -0.54600
C787        C  0.27555784  0.43485538  0.80745207     0.08600
C788        C  0.30506902  0.41568431  0.79364320     0.19500
C789        C  0.31340411  0.35825160  0.84217013    -0.55300
C790        C  0.30775541  0.36550305  0.80480020     0.08700
C791        C  0.35020152  0.42267900  0.85588591    -0.54800
C792        C  0.34084325  0.43819629  0.81952056     0.09300
H793        H  0.26709721  0.44130526  0.85959146     0.13800
H794        H  0.29964507  0.42103517  0.76332681    -0.00500
H795        H  0.31558026  0.65876778  0.85416371     0.14100
H796        H  0.37553939  0.43233051  0.87773964     0.13900
C797        C  0.42740071  0.41697027  0.59420188     0.85700
C798        C  0.40257760  0.45441152  0.57277121    -0.54600
C799        C  0.39699209  0.45547331  0.53454423     0.08600
C800        C  0.41728789  0.41879716  0.52216378     0.19500
C801        C  0.40808074  0.37539994  0.57081348    -0.55300
C802        C  0.39978805  0.37823390  0.53217330     0.08700
C803        C  0.46227818  0.42315422  0.58469552    -0.54800
C804        C  0.45739738  0.42146498  0.54776374     0.09300
H805        H  0.39015643  0.47528622  0.58776755     0.13800
H806        H  0.41582408  0.41992808  0.49288272    -0.00500
H807        H  0.40066633  0.34748554  0.58389172     0.14100
H808        H  0.98868976  0.42663980  0.60453347     0.13900
C809        C  0.43578856  0.41492683  0.63897376     0.85700
C810        C  0.44115656  0.45795771  0.66209544    -0.54600
C811        C  0.44779304  0.45127345  0.69980586     0.08600
C812        C  0.45130510  0.40133631  0.71135567     0.19500
C813        C  0.47138677  0.38829658  0.65926701    -0.55300
C814        C  0.48064980  0.38271791  0.69715929     0.08700
C815        C  0.40558978  0.39245296  0.64963908    -0.54800
C816        C  0.41580317  0.37772389  0.68631179     0.09300
H817        H  0.43899323  0.49057429  0.64983000     0.13800
H818        H  0.45731391  0.39636806  0.74181580    -0.00500
H819        H  0.98852963  0.37576406  0.64389895     0.14100
H820        H  0.38057052  0.38136884  0.62801733     0.13900
C821        C  0.48767125  0.53233834  0.78182796     0.85700
C822        C  0.48683140  0.50406343  0.74834192    -0.54600
C823        C  0.45276351  0.48824527  0.72768356     0.08600
C824        C  0.42177291  0.50696192  0.74103035     0.19500
C825        C  0.46074141  0.57053972  0.76488595    -0.55300
C826        C  0.42659277  0.55768996  0.74254230     0.08700
C827        C  0.46833862  0.50237588  0.80184606    -0.54800
C828        C  0.43181569  0.49502817  0.78265209     0.09300
H829        H  0.01027383  0.49469194  0.74202425     0.13800
H830        H  0.39405793  0.49495421  0.72389243    -0.00500
H831        H  0.46832886  0.60462558  0.76944429     0.14100
H832        H  0.48143454  0.49108905  0.83035454     0.13900
C833        C  0.36557078  0.60740064  0.65318465     0.85700
C834        C  0.39698134  0.30553948  0.65814999    -0.54600
C835        C  0.40819301  0.32888468  0.69077370     0.08600
C836        C  0.39372854  0.63974140  0.72001910     0.19500
C837        C  0.38212741  0.57199805  0.68117972    -0.55300
C838        C  0.39917404  0.58788044  0.71651933     0.08700
C839        C  0.33811414  0.63067461  0.66665238    -0.54800
C840        C  0.35138235  0.64629050  0.70251181     0.09300
H841        H  0.40601219  0.31263456  0.63492495     0.13800
H842        H  0.40661395  0.65282540  0.74885729    -0.00500
H843        H  0.38431587  0.53834075  0.67260279     0.14100
H844        H  0.30946419  0.63032448  0.64903000     0.13900
C845        C  0.26875931  0.61814193  0.72279114     0.85700
C846        C  0.28846930  0.64789315  0.70317223    -0.54600
C847        C  0.32494935  0.65532706  0.72286939     0.08600
C848        C  0.33456718  0.64301482  0.76443044     0.19500
C849        C  0.29548976  0.57974045  0.74000300    -0.55300
C850        C  0.32954635  0.59224782  0.76293067     0.08700
C851        C  0.26927886  0.64651865  0.75604623    -0.54800
C852        C  0.30325072  0.66197539  0.77708543     0.09300
H853        H  0.27542008  0.65929440  0.67469821     0.13800
H854        H  0.36221412  0.65483175  0.78199464    -0.00500
H855        H  0.28781535  0.54575709  0.73522035     0.14100
H856        H  0.24464076  0.65496090  0.76126111     0.13900
C857        C  0.39144446  0.54275874  0.85319436     0.85700
C858        C  0.41930474  0.52163309  0.83901843    -0.54600
C859        C  0.40581334  0.50538107  0.80327253     0.08600
C860        C  0.36322297  0.51024040  0.78619029     0.19500
C861        C  0.37294583  0.57768434  0.82523888    -0.55300
C862        C  0.35630174  0.56178926  0.78982688     0.08700
C863        C  0.36163675  0.50966979  0.84896068    -0.54800
C864        C  0.34996973  0.48680313  0.81610887     0.09300
H865        H  0.44809078  0.52326129  0.85611837     0.13800
H866        H  0.35043949  0.49705031  0.75737870    -0.00500
H867        H  0.37004288  0.61119780  0.83371781     0.14100
H868        H  0.35302139  0.50218615  0.87233723     0.13900
O869        O  0.35612190  0.52687833  0.55118145    -0.58600
C870        C  0.34781983  0.59589636  0.61369717     0.74000
O871        O  0.34337104  0.65604840  0.54344460    -0.59800
C872        C  0.35142790  0.52007007  0.51718526     0.74000
C873        C  0.23958521  0.56822505  0.53527010     0.76400
Cd874      Cd  0.31347469  0.58407015  0.53904863     1.37500
O875        O  0.34631102  0.55698745  0.60133627    -0.58600
O876        O  0.26484815  0.54014426  0.54693984    -0.57400
C877        C  0.35180946  0.64943540  0.51457924     0.76300
O878        O  0.24612388  0.60181377  0.51868149    -0.59800
O879        O  0.33302330  0.62677470  0.59109263    -0.58300
O880        O  0.32733124  0.54330998  0.49307065    -0.58300
O881        O  0.33702501  0.61614431  0.49488019    -0.57400
C882        C  0.37121214  0.48466828  0.50400101    -0.03300
O883        O  0.38326960  0.51944004  0.45287202    -0.58600
C884        C  0.40647994  0.59035351  0.38806069     0.74000
O885        O  0.42501612  0.63790006  0.50450791    -0.59800
C886        C  0.39399356  0.51088515  0.48750269     0.74000
C887        C  0.49789182  0.56779988  0.46440272     0.76400
Cd888      Cd  0.42710086  0.57847781  0.46192166     1.37500
O889        O  0.39759735  0.55476287  0.40005138    -0.58600
O890        O  0.47479538  0.53729015  0.45187016    -0.57400
C891        C  0.39479187  0.65418550  0.48340810     0.76300
O892        O  0.48967220  0.59879883  0.48232568    -0.59800
O893        O  0.42704139  0.61762521  0.41097395    -0.58300
O894        O  0.42227499  0.53079671  0.50894521    -0.58300
O895        O  0.38102092  0.63753538  0.45105960    -0.57400
C896        C  0.37238664  0.34925682  0.50030254    -0.03300
C897        C  0.28378690  0.41706738  0.45615867     0.85700
C898        C  0.30601683  0.37495511  0.46753311    -0.54600
C899        C  0.34179852  0.37672364  0.46860768     0.08600
C900        C  0.34718376  0.41972430  0.44781756     0.19500
C901        C  0.30792055  0.45235387  0.47883623    -0.55300
C902        C  0.34169646  0.45590642  0.47521419     0.08700
C903        C  0.28075082  0.42646606  0.41627406    -0.54800
C904        C  0.31283267  0.42460128  0.40918246     0.09300
H905        H  0.29472958  0.34846614  0.47909520     0.13800
H906        H  0.37313735  0.42118491  0.44222859    -0.00500
H907        H  0.29923976  0.47029486  0.49895942     0.14100
H908        H  0.25419147  0.43240871  0.39488639     0.13900
C909        C  0.30976916  0.41750159  0.36670170     0.85700
C910        C  0.30775614  0.45869696  0.34247297    -0.54600
C911        C  0.30357115  0.44983444  0.30569764     0.08600
C912        C  0.29992695  0.39930785  0.29572632     0.19500
C913        C  0.27424358  0.39135349  0.34442529    -0.55300
C914        C  0.26840319  0.38243158  0.30753495     0.08700
C915        C  0.34038350  0.39083952  0.36048577    -0.54800
C916        C  0.33365694  0.37595663  0.32394063     0.09300
H917        H  0.30916709  0.49198191  0.35329223     0.13800
H918        H  0.29620002  0.39268901  0.26594534    -0.00500
H919        H  0.25445495  0.38110650  0.35681355     0.14100
H920        H  0.36355526  0.38039165  0.38449210     0.13900
C921        C  0.43064035  0.39969697  0.09377432     0.85700
C922        C  0.41009924  0.44085005  0.07093602    -0.54600
C923        C  0.40331670  0.43949223  0.03293034     0.08600
C924        C  0.42053962  0.39932699  0.02177938     0.19500
C925        C  0.40715761  0.36090042  0.07201605    -0.55300
C926        C  0.40134526  0.36107829  0.03384944     0.08700
C927        C  0.46576090  0.39607837  0.08426631    -0.54800
C928        C  0.46042203  0.39724144  0.04704479     0.09300
H929        H  0.40015943  0.46741042  0.08328322     0.13800
H930        H  0.41756318  0.39906351  0.99165833    -0.00500
H931        H  0.39689782  0.67068956  0.08679198     0.14100
H932        H  0.99322645  0.39128046  0.10466318     0.13900
C933        C  0.43823308  0.40171842  0.13816120     0.85700
C934        C  0.47328663  0.42865855  0.16025974    -0.54600
C935        C  0.47983961  0.43330992  0.19769829     0.08600
C936        C  0.44923519  0.41476627  0.20971227     0.19500
C937        C  0.44292446  0.35881593  0.16088373    -0.55300
C938        C  0.44687529  0.36487453  0.19829672     0.08700
C939        C  0.40652063  0.42310744  0.14679242    -0.54800
C940        C  0.41428217  0.43741825  0.18304754     0.09300
H941        H  0.99253412  0.44145225  0.14708776     0.13800
H942        H  0.45352313  0.42005081  0.23981545    -0.00500
H943        H  0.44216527  0.66120113  0.14778773     0.14100
H944        H  0.38125943  0.43206861  0.12453500     0.13900
C945        C  0.26281773  0.52818315  0.22192545     0.85700
C946        C  0.26402349  0.50062914  0.25596131    -0.54600
C947        C  0.29834414  0.48572544  0.27685891     0.08600
C948        C  0.32904746  0.50485161  0.26319795     0.19500
C949        C  0.28882197  0.56713703  0.23781606    -0.55300
C950        C  0.32288526  0.55579223  0.26075629     0.08700
C951        C  0.28233796  0.49809688  0.20250420    -0.54800
C952        C  0.31886864  0.49049283  0.22193972     0.09300
H953        H  0.23970093  0.49247132  0.26189866     0.13800
H954        H  0.35701260  0.49392604  0.28059097    -0.00500
H955        H  0.28013286  0.60090100  0.23311985     0.14100
H956        H  0.26835542  0.48532662  0.17468311     0.13900
C957        C  0.38825678  0.60473952  0.34981632     0.85700
C958        C  0.36111217  0.63912641  0.35054116    -0.54600
C959        C  0.34581882  0.32905905  0.31877388     0.08600
C960        C  0.35399648  0.63904918  0.28484030     0.19500
C961        C  0.36611186  0.57099186  0.32274355    -0.55300
C962        C  0.34736466  0.58746787  0.28826342     0.08700
C963        C  0.41374759  0.62550106  0.33208259    -0.54800
C964        C  0.39654748  0.64156388  0.29697761     0.09300
H965        H  0.35553285  0.31222338  0.37644194     0.13800
H966        H  0.33919788  0.65360864  0.25688509    -0.00500
H967        H  0.36423353  0.53710629  0.33099775     0.14100
H968        H  0.44319023  0.62255395  0.34449336     0.13900
C969        C  0.44526965  0.66122159  0.22503565     0.85700
C970        C  0.43102442  0.61668577  0.20614297    -0.54600
C971        C  0.42452545  0.58468017  0.22903618     0.08600
C972        C  0.44041384  0.59844391  0.27032057     0.19500
C973        C  0.41967341  0.67209620  0.24735723    -0.55300
C974        C  0.41767345  0.63948529  0.27130974     0.08700
C975        C  0.48211741  0.64905151  0.25439794    -0.54800
C976        C  0.48011200  0.61573774  0.27778077     0.09300
H977        H  0.42146485  0.61275258  0.17603257     0.13800
H978        H  0.43910768  0.57141955  0.28951888    -0.00500
H979        H  0.40464635  0.36910569  0.24474618     0.14100
H980        H  0.00863579  0.66330721  0.25563919     0.13900
C981        C  0.35520694  0.53398739  0.15031299     0.85700
C982        C  0.33077483  0.50494318  0.16343716    -0.54600
C983        C  0.34528527  0.49277470  0.20046636     0.08600
C984        C  0.38768648  0.50387912  0.21718272     0.19500
C985        C  0.36692272  0.57003729  0.17911671    -0.55300
C986        C  0.39033172  0.55597057  0.21321540     0.08700
C987        C  0.38933656  0.50783552  0.15476032    -0.54800
C988        C  0.40311532  0.48473640  0.18740187     0.09300
H989        H  0.30255755  0.50083818  0.14535656     0.13800
H990        H  0.40184120  0.49133977  0.24601445    -0.00500
H991        H  0.36295610  0.60448944  0.17091439     0.14100
H992        H  0.39868292  0.50352415  0.13138532     0.13900
C993        C  0.12184607  0.83255540  0.50275930    -0.03300
O994        O  0.09789717  0.76148756  0.60101187    -0.58600
C995        C  0.10217725  0.79730811  0.51622392     0.74000
O996        O  0.09467036  0.99782346  0.54534434    -0.59800
C997        C  0.09864762  0.72262200  0.61330444     0.74000
C998        C  0.98915738  0.75131839  0.53486027     0.76400
Cd999      Cd  0.06316438  0.73517776  0.53866401     1.37500
O1000       O  0.10172097  0.79589945  0.54913620    -0.58600
O1001       O  0.01429128  0.77965991  0.54611317    -0.57400
C1002       C  0.10107641  0.00227094  0.51509941     0.76300
O1003       O  0.99582676  0.71759218  0.51859406    -0.59800
O1004       O  0.08140306  0.77049650  0.49265680    -0.58300
O1005       O  0.08288527  0.69219604  0.59066574    -0.58300
O1006       O  0.08486601  0.70069555  0.49370383    -0.57400
O1007       O  0.13860775  0.74928307  0.39797136    -0.58600
C1008       C  0.14489952  0.80649790  0.48619103     0.74000
O1009       O  0.17252642  0.01610234  0.50619228    -0.59800
C1010       C  0.15500895  0.71937583  0.38663635     0.74000
C1011       C  0.24772233  0.74861469  0.46200174     0.76400
Cd1012     Cd  0.17642952  0.73712693  0.46006960     1.37500
O1013       O  0.13605333  0.80087829  0.45120498    -0.58600
O1014       O  0.22521564  0.78020611  0.45215193    -0.57400
C1015       C  0.14429725  0.99635093  0.48451254     0.76300
O1016       O  0.23857975  0.71538714  0.47696954    -0.59800
O1017       O  0.17147233  0.78401812  0.50765303    -0.58300
O1018       O  0.18262655  0.70071298  0.40977245    -0.58300
O1019       O  0.13295596  0.67477193  0.45012564    -0.57400
C1020       C  0.12144449  0.96807274  0.50037107    -0.03300
C1021       C  0.17768254  0.91681082  0.09365624     0.85700
C1022       C  0.15440779  0.95499968  0.07121577    -0.54600
C1023       C  0.15012849  0.95482898  0.03335444     0.08600
C1024       C  0.17058615  0.91697916  0.02229928     0.19500
C1025       C  0.15855181  0.87528949  0.07053592    -0.55300
C1026       C  0.15327111  0.87634493  0.03280078     0.08700
C1027       C  0.21365120  0.92182969  0.08565944    -0.54800
C1028       C  0.21008168  0.92005768  0.04887197     0.09300
H1029       H  0.14390171  0.64549326  0.08547808     0.13800
H1030       H  0.16855438  0.91724128  0.99243853    -0.00500
H1031       H  0.14804966  0.84888850  0.08251915     0.14100
H1032       H  0.24028075  0.92641883  0.10732645     0.13900
C1033       C  0.18372650  0.91403947  0.13776877     0.85700
C1034       C  0.18881761  0.95633682  0.16144256    -0.54600
C1035       C  0.19351164  0.94878365  0.19856880     0.08600
C1036       C  0.19570804  0.89837613  0.20928823     0.19500
C1037       C  0.21823170  0.88628161  0.15872930    -0.55300
C1038       C  0.22553376  0.87910487  0.19611168     0.08700
C1039       C  0.15218476  0.89171103  0.14635281    -0.54800
C1040       C  0.16047459  0.87601888  0.18253246     0.09300
H1041       H  0.18773093  0.98921723  0.14990052     0.13800
H1042       H  0.20037030  0.89265948  0.23941149    -0.00500
H1043       H  0.23648425  0.87469387  0.14498342     0.14100
H1044       H  0.12699855  0.88297476  0.12388665     0.13900
C1045       C  0.03323189  0.89938526  0.45754576     0.85700
C1046       C  0.05759885  0.86306634  0.47815055    -0.54600
C1047       C  0.09133525  0.86076940  0.47404687     0.08600
C1048       C  0.09567589  0.89831199  0.44717757     0.19500
C1049       C  0.05552857  0.94107637  0.46989371    -0.55300
C1050       C  0.09070683  0.94032825  0.46937129     0.08700
C1051       C  0.02874951  0.89268660  0.41710939    -0.54800
C1052       C  0.06024382  0.89450418  0.40915152     0.09300
H1053       H  0.04899713  0.84364043  0.49756965     0.13800
H1054       H  0.12134195  0.89772952  0.44093043    -0.00500
H1055       H  0.04476066  0.96652124  0.48295402     0.14100
H1056       H  0.00175990  0.88765204  0.39623865     0.13900
C1057       C  0.05607429  0.90011281  0.36644860     0.85700
C1058       C  0.01911797  0.92286873  0.34241788    -0.54600
C1059       C  0.01384375  0.92880874  0.30538027     0.08600
C1060       C  0.04678857  0.91464820  0.29526666     0.19500
C1061       C  0.05677086  0.85811210  0.34429024    -0.55300
C1062       C  0.05241558  0.86498176  0.30692567     0.08700
C1063       C  0.08537761  0.92861975  0.35990313    -0.54800
C1064       C  0.07892156  0.94094151  0.32296967     0.09300
H1065       H  0.49896308  0.93580030  0.35410945     0.13800
H1066       H  0.04328554  0.92061190  0.26542047    -0.00500
H1067       H  0.05969272  0.82613120  0.35753921     0.14100
H1068       H  0.10716198  0.94229049  0.38370207     0.13900
C1069       C  0.23121322  0.69673604  0.28067248     0.85700
C1070       C  0.23120326  0.00193255  0.24752877    -0.54600
C1071       C  0.19742966  0.98561846  0.22627634     0.08600
C1072       C  0.16591544  0.67020080  0.23851195     0.19500
C1073       C  0.20423601  0.73422831  0.26330473    -0.55300
C1074       C  0.17073335  0.72122669  0.24002108     0.08700
C1075       C  0.21168405  0.66652499  0.30010919    -0.54800
C1076       C  0.17543293  0.65688897  0.28004547     0.09300
H1077       H  0.25615816  0.99410968  0.24264101     0.13800
H1078       H  0.13806366  0.99205810  0.22074060    -0.00500
H1079       H  0.21163492  0.76838643  0.26783589     0.14100
H1080       H  0.22572886  0.65525851  0.32839312     0.13900
C1081       C  0.10611888  0.77298955  0.15117231     0.85700
C1082       C  0.13559890  0.80565093  0.15310310    -0.54600
C1083       C  0.15029576  0.82776009  0.18594835     0.08600
C1084       C  0.14017502  0.80400381  0.21774796     0.19500
C1085       C  0.12618310  0.73730580  0.17798552    -0.55300
C1086       C  0.14515415  0.75246521  0.21307843     0.08700
C1087       C  0.08078816  0.79470980  0.16883809    -0.54800
C1088       C  0.09806429  0.80912838  0.20461159     0.09300
H1089       H  0.14187937  0.81306700  0.12829761     0.13800
H1090       H  0.15499760  0.81706867  0.24626828    -0.00500
H1091       H  0.12738212  0.70354985  0.16911234     0.14100
H1092       H  0.05124272  0.79314752  0.15597950     0.13900
C1093       C  0.05228042  0.82810415  0.27876758     0.85700
C1094       C  0.06540023  0.78239720  0.29589024    -0.54600
C1095       C  0.07035952  0.75104654  0.27154736     0.08600
C1096       C  0.05392787  0.76693793  0.23080618     0.19500
C1097       C  0.07717414  0.83911174  0.25577070    -0.55300
C1098       C  0.07720387  0.80742669  0.23030237     0.08700
C1099       C  0.01459949  0.81795891  0.24965226    -0.54800
C1100       C  0.01512924  0.78565240  0.22479638     0.09300
H1101       H  0.07584807  0.77720634  0.32588395     0.13800
H1102       H  0.05397150  0.74068817  0.21049665    -0.00500
H1103       H  0.09304416  0.86926036  0.25915516     0.14100
H1104       H  0.48906572  0.83353259  0.25025317     0.13900
C1105       C  0.13892355  0.70204802  0.34882646     0.85700
C1106       C  0.16207000  0.66882135  0.33758651    -0.54600
C1107       C  0.14790028  0.99031790  0.30089675     0.08600
C1108       C  0.10555761  0.00277624  0.28411057     0.19500
C1109       C  0.12929945  0.73633753  0.31841922    -0.55300
C1110       C  0.10439069  0.72152095  0.28553009     0.08700
C1111       C  0.10414146  0.01259391  0.34626787    -0.54800
C1112       C  0.08998324  0.98720292  0.31522764     0.09300
H1113       H  0.18959991  0.66216293  0.35631339     0.13800
H1114       H  0.09078142  0.98863204  0.25600346    -0.00500
H1115       H  0.13436660  0.77107012  0.32534961     0.14100
H1116       H  0.09509858  0.01077113  0.37024078     0.13900
C1117       C  0.12711251  0.84665969  0.00137921    -0.03300
O1118       O  0.15829623  0.67713458  0.96156584    -0.58600
C1119       C  0.15605374  0.76125944  0.89214494     0.74000
O1120       O  0.18517319  0.81298590  0.00261965    -0.59800
C1121       C  0.15341071  0.67953600  0.99245694     0.74000
C1122       C  0.26054279  0.73111482  0.96479367     0.76400
Cd1123     Cd  0.18869944  0.74498015  0.96746849     1.37500
O1124       O  0.15392402  0.72280455  0.90403030    -0.58600
O1125       O  0.23177284  0.71283504  0.94356847    -0.57400
C1126       C  0.15036389  0.81583376  0.98746263     0.76300
O1127       O  0.25792400  0.75315606  0.99215988    -0.59800
O1128       O  0.17319410  0.79049402  0.91547988    -0.58300
O1129       O  0.17261957  0.70756937  0.01582303    -0.60700
O1130       O  0.13504718  0.78816682  0.96203160    -0.57400
C1131       C  0.12622350  0.98443913  0.00169985    -0.03300
O1132       O  0.09245286  0.72371758  0.09907661    -0.58600
C1133       C  0.09990908  0.68076034  0.01106801     0.74000
O1134       O  0.99696605  0.76188629  0.01308405    -0.59800
C1135       C  0.08783944  0.76090937  0.11156863     0.74000
C1136       C  0.10346966  0.81622095  0.01534828     0.76400
Cd1137     Cd  0.06345988  0.74658411  0.03500716     1.37500
O1138       O  0.09789887  0.68195041  0.04328611    -0.58600
O1139       O  0.11819914  0.78873965  0.04120235    -0.57400
C1140       C  0.99203477  0.73077255  0.03319611     0.76300
O1141       O  0.06872511  0.81362340  0.99973456    -0.59800
O1142       O  0.07898580  0.70679442  0.98680613    -0.58300
O1143       O  0.07051368  0.79010055  0.08834341    -0.58300
O1144       O  0.01735794  0.70293925  0.04582016    -0.57400
C1145       C  0.07557781  0.91740516  0.90917083     0.85700
C1146       C  0.09791773  0.95617068  0.93185792    -0.54600
C1147       C  0.10240455  0.95503085  0.96981460     0.08600
C1148       C  0.08279403  0.91607892  0.98063160     0.19500
C1149       C  0.09604680  0.87626549  0.93219678    -0.55300
C1150       C  0.10103865  0.87649457  0.96991756     0.08700
C1151       C  0.03966183  0.92077184  0.91743862    -0.54800
C1152       C  0.04328426  0.91811077  0.95410917     0.09300
H1153       H  0.10789385  0.64787100  0.91806395     0.13800
H1154       H  0.08482202  0.91577623  0.01049061    -0.00500
H1155       H  0.10818669  0.85116895  0.92054751     0.14100
H1156       H  0.51306717  0.92617768  0.89729840     0.13900
C1157       C  0.06850561  0.91536710  0.86467669     0.85700
C1158       C  0.06253930  0.95804056  0.84123884    -0.54600
C1159       C  0.05677339  0.95096741  0.80378711     0.08600
C1160       C  0.05422438  0.90088877  0.79260949     0.19500
C1161       C  0.03373697  0.88731315  0.84422452    -0.55300
C1162       C  0.02493392  0.88132470  0.80652681     0.08700
C1163       C  0.09959459  0.89392207  0.85469322    -0.54800
C1164       C  0.09004980  0.87850063  0.81829825     0.09300
H1165       H  0.06398550  0.99075581  0.85313024     0.13800
H1166       H  0.04870577  0.89565971  0.76226734    -0.00500
H1167       H  0.51645847  0.87549093  0.85954277     0.14100
H1168       H  0.12492882  0.88407379  0.87644598     0.13900
C1169       C  0.17737503  0.90018184  0.59384861     0.85700
C1170       C  0.15682908  0.94121670  0.57061453    -0.54600
C1171       C  0.14861886  0.93900604  0.53201268     0.08600
C1172       C  0.16689817  0.89959804  0.52153503     0.19500
C1173       C  0.15396227  0.86165491  0.57221789    -0.55300
C1174       C  0.14757878  0.86175429  0.53368943     0.08700
C1175       C  0.21222683  0.89610666  0.58407536    -0.54800
C1176       C  0.20712724  0.89829653  0.54709906     0.09300
H1177       H  0.14906672  0.96859923  0.58387343     0.13800
H1178       H  0.16502446  0.89907197  0.49205138    -0.00500
H1179       H  0.14396579  0.83832537  0.58760603     0.14100
H1180       H  0.23948824  0.89189165  0.60468200     0.13900
C1181       C  0.18581912  0.90228440  0.63885064     0.85700
C1182       C  0.22142546  0.92911031  0.65905244    -0.54600
C1183       C  0.23068664  0.93499446  0.69688184     0.08600
C1184       C  0.20133004  0.91661165  0.71123401     0.19500
C1185       C  0.19116994  0.85948285  0.66243834    -0.55300
C1186       C  0.19778786  0.86657965  0.70014607     0.08700
C1187       C  0.15564593  0.92500436  0.64946273    -0.54800
C1188       C  0.16581661  0.93996654  0.68604173     0.09300
H1189       H  0.23870122  0.94137539  0.64443662     0.13800
H1190       H  0.20732373  0.92190153  0.74164748    -0.00500
H1191       H  0.18907041  0.82671260  0.65051609     0.14100
H1192       H  0.13048267  0.93580526  0.62793805     0.13900
C1193       C  0.01812594  0.69812263  0.72141584     0.85700
C1194       C  0.01852239  0.66922705  0.75437680    -0.54600
C1195       C  0.05233680  0.98778509  0.77605006     0.08600
C1196       C  0.08389415  0.67363465  0.76334659     0.19500
C1197       C  0.04454510  0.73664673  0.73899112    -0.55300
C1198       C  0.07859245  0.72432835  0.76195004     0.08700
C1199       C  0.03823104  0.66902557  0.70178822    -0.54800
C1200       C  0.07470793  0.66187097  0.72174474     0.09300
H1201       H  0.49446242  0.99485590  0.76077920     0.13800
H1202       H  0.11155962  0.66205228  0.78104643    -0.00500
H1203       H  0.03666904  0.77056418  0.73437394     0.14100
H1204       H  0.02555239  0.65810678  0.67312885     0.13900
C1205       C  0.13928122  0.77370395  0.85249167     0.85700
C1206       C  0.10942447  0.80679840  0.84772597    -0.54600
C1207       C  0.09851066  0.82976166  0.81489523     0.08600
C1208       C  0.11227576  0.80630825  0.78541837     0.19500
C1209       C  0.12111167  0.73886050  0.82441978    -0.55300
C1210       C  0.10509416  0.75478904  0.78896103     0.08700
C1211       C  0.16768834  0.79476191  0.83888962    -0.54800
C1212       C  0.15483172  0.81108383  0.80314539     0.09300
H1213       H  0.10030933  0.81438358  0.87074637     0.13800
H1214       H  0.09990255  0.81951721  0.75655558    -0.00500
H1215       H  0.11791218  0.70534838  0.83278259     0.14100
H1216       H  0.19635250  0.79304774  0.85637818     0.13900
C1217       C  0.23769298  0.78533523  0.78242002     0.85700
C1218       C  0.21785491  0.81419612  0.80266417    -0.54600
C1219       C  0.18137546  0.82161508  0.78312847     0.08600
C1220       C  0.17177954  0.81044219  0.74141087     0.19500
C1221       C  0.21109308  0.74707988  0.76483317    -0.55300
C1222       C  0.17693407  0.75979705  0.74253658     0.08700
C1223       C  0.23693459  0.81449536  0.74941426    -0.54800
C1224       C  0.20285396  0.82997504  0.72851807     0.09300
H1225       H  0.23056669  0.82472372  0.83141611     0.13800
H1226       H  0.14404941  0.82223721  0.72413455    -0.00500
H1227       H  0.21891444  0.71305014  0.76891677     0.14100
H1228       H  0.26148848  0.82277466  0.74401703     0.13900
C1229       C  0.11628545  0.71070413  0.65276659     0.85700
C1230       C  0.08840310  0.68817331  0.66615453    -0.54600
C1231       C  0.10137734  0.67200294  0.70185071     0.08600
C1232       C  0.14378518  0.67792965  0.71959355     0.19500
C1233       C  0.13334848  0.74579148  0.68081767    -0.55300
C1234       C  0.14987124  0.72969182  0.71614479     0.08700
C1235       C  0.14685497  0.01213853  0.65770426    -0.54800
C1236       C  0.15792698  0.98872552  0.69032153     0.09300
H1237       H  0.05976051  0.68918584  0.64853763     0.13800
H1238       H  0.15622414  0.99807426  0.74871816    -0.00500
H1239       H  0.13598221  0.77944063  0.67241075     0.14100
H1240       H  0.15585032  0.00498026  0.63448057     0.13900
C1241       C  0.37711807  0.80265238  0.00191435    -0.03300
O1242       O  0.40535099  0.92686933  0.90454638    -0.58600
C1243       C  0.40410615  0.96925792  0.99386433     0.74000
O1244       O  0.43504407  0.83628351  0.00295129    -0.59800
C1245       C  0.40690402  0.88839601  0.89253473     0.74000
C1246       C  0.51075496  0.91710255  0.96636187     0.76400
Cd1247     Cd  0.43890614  0.90390274  0.96817408     1.37500
O1248       O  0.40909320  0.97177277  0.96303575    -0.58600
O1249       O  0.48319640  0.93958535  0.94798360    -0.57400
C1250       C  0.40022003  0.83353491  0.98783789     0.76300
O1251       O  0.50720468  0.89130905  0.99122730    -0.59800
O1252       O  0.42286788  0.94070777  0.01700433    -0.58300
O1253       O  0.42341448  0.85884581  0.91582171    -0.58300
O1254       O  0.38487755  0.86128421  0.96245142    -0.57400
O1255       O  0.34425413  0.91972959  0.10102728    -0.58600
C1256       C  0.35105453  0.96909705  0.01328769     0.74000
O1257       O  0.31882701  0.83543725  0.00084584    -0.59800
C1258       C  0.33925936  0.88141111  0.11142193     0.74000
C1259       C  0.24266323  0.91893129  0.03767286     0.76400
Cd1260     Cd  0.31418803  0.90240870  0.03656906     1.37500
O1261       O  0.34933158  0.96804111  0.04568410    -0.58600
O1262       O  0.27055420  0.94096042  0.05612976    -0.57400
C1263       C  0.35364882  0.83298337  0.01608419     0.76300
O1264       O  0.24577773  0.89321062  0.01254583    -0.59800
O1265       O  0.32976496  0.94321858  0.98919903    -0.58300
O1266       O  0.32262347  0.85342602  0.08663336    -0.58300
O1267       O  0.36864266  0.86062766  0.04169368    -0.57400
C1268       C  0.37743385  0.99845986  0.00323155    -0.03300
C1269       C  0.32654785  0.73153703  0.91009158     0.85700
C1270       C  0.34620917  0.77297045  0.93301028    -0.54600
C1271       C  0.35105435  0.77259922  0.97066386     0.08600
C1272       C  0.33320051  0.73246651  0.98142047     0.19500
C1273       C  0.34931403  0.69314409  0.93297044    -0.55300
C1274       C  0.35343070  0.69389405  0.97091185     0.08700
C1275       C  0.29059623  0.72709607  0.91800830    -0.54800
C1276       C  0.29372483  0.72970071  0.95454916     0.09300
H1277       H  0.35795872  0.79845337  0.92125423     0.13800
H1278       H  0.33511755  0.73270848  0.01124616    -0.00500
H1279       H  0.35929159  0.00146866  0.91940824     0.14100
H1280       H  0.26414055  0.72167804  0.89626514     0.13900
C1281       C  0.31951594  0.73408831  0.86565312     0.85700
C1282       C  0.28449818  0.76179957  0.84533777    -0.54600
C1283       C  0.27545794  0.76789865  0.80761913     0.08600
C1284       C  0.30479178  0.74885367  0.79355724     0.19500
C1285       C  0.31384138  0.69152917  0.84224860    -0.55300
C1286       C  0.30779803  0.69874794  0.80479080     0.08700
C1287       C  0.35031117  0.75628093  0.85556137    -0.54800
C1288       C  0.34048935  0.77169260  0.81909304     0.09300
H1289       H  0.26749560  0.77460374  0.85999201     0.13800
H1290       H  0.29908691  0.75416367  0.76318573    -0.00500
H1291       H  0.31478346  0.99194582  0.85366734     0.14100
H1292       H  0.37555543  0.76651765  0.87726445     0.13900
C1293       C  0.42742723  0.75031900  0.59366095     0.85700
C1294       C  0.40267643  0.78790680  0.57233633    -0.54600
C1295       C  0.39669327  0.78891187  0.53399823     0.08600
C1296       C  0.41701967  0.75242843  0.52148439     0.19500
C1297       C  0.40797986  0.70879431  0.57011304    -0.55300
C1298       C  0.39966125  0.71180489  0.53143946     0.08700
C1299       C  0.46221083  0.75648822  0.58398706    -0.54800
C1300       C  0.45715706  0.75504503  0.54698951     0.09300
H1301       H  0.39093405  0.80921975  0.58764055     0.13800
H1302       H  0.41544450  0.75370824  0.49216821    -0.00500
H1303       H  0.40045576  0.68077203  0.58306181     0.14100
H1304       H  0.98899869  0.75999640  0.60433569     0.13900
C1305       C  0.43587554  0.74822628  0.63858283     0.85700
C1306       C  0.44081471  0.79116167  0.66192465    -0.54600
C1307       C  0.44733759  0.78424071  0.69964431     0.08600
C1308       C  0.45113968  0.73428353  0.71096528     0.19500
C1309       C  0.47166793  0.72195514  0.65902775    -0.55300
C1310       C  0.48072640  0.71613296  0.69690523     0.08700
C1311       C  0.40578747  0.72523399  0.64905499    -0.54800
C1312       C  0.41585892  0.71057225  0.68573247     0.09300
H1313       H  0.43855265  0.82386659  0.64980822     0.13800
H1314       H  0.45700948  0.72908869  0.74137492    -0.00500
H1315       H  0.98826664  0.70857276  0.64331878     0.14100
H1316       H  0.38085433  0.71406331  0.62736937     0.13900
C1317       C  0.48724208  0.86506725  0.78208232     0.85700
C1318       C  0.48637315  0.83650987  0.74874217    -0.54600
C1319       C  0.45228951  0.82092168  0.72789923     0.08600
C1320       C  0.42127416  0.83994062  0.74112922     0.19500
C1321       C  0.46051471  0.90334205  0.76492510    -0.55300
C1322       C  0.42632785  0.89063609  0.74259894     0.08700
C1323       C  0.46759416  0.83557127  0.80216261    -0.54800
C1324       C  0.43108234  0.82825152  0.78281065     0.09300
H1325       H  0.01083340  0.82780161  0.74212441     0.13800
H1326       H  0.39353402  0.82809130  0.72390245    -0.00500
H1327       H  0.46824963  0.93740613  0.76938424     0.14100
H1328       H  0.48046637  0.82456879  0.83077305     0.13900
C1329       C  0.36621598  0.94081081  0.65325323     0.85700
C1330       C  0.39693448  0.63838665  0.65785949    -0.54600
C1331       C  0.40818383  0.66187008  0.69038868     0.08600
C1332       C  0.39388225  0.97286911  0.72020996     0.19500
C1333       C  0.38220995  0.90524275  0.68123199    -0.55300
C1334       C  0.39905361  0.92096258  0.71663798     0.08700
C1335       C  0.33863536  0.96442168  0.66639948    -0.54800
C1336       C  0.35160146  0.97981216  0.70232961     0.09300
H1337       H  0.40595736  0.64530744  0.63456492     0.13800
H1338       H  0.40659894  0.98577803  0.74912836    -0.00500
H1339       H  0.38431365  0.87157096  0.67263243     0.14100
H1340       H  0.31007804  0.96444120  0.64849507     0.13900
C1341       C  0.26849251  0.95188899  0.72225342     0.85700
C1342       C  0.28840545  0.98127704  0.70254144    -0.54600
C1343       C  0.32486952  0.98879255  0.72240420     0.08600
C1344       C  0.33425520  0.97670056  0.76399574     0.19500
C1345       C  0.29506425  0.91348961  0.73961038    -0.55300
C1346       C  0.32910504  0.92595593  0.76251806     0.08700
C1347       C  0.26892675  0.98049447  0.75532977    -0.54800
C1348       C  0.30286707  0.99583425  0.77650264     0.09300
H1349       H  0.27550907  0.99233923  0.67395626     0.13800
H1350       H  0.36189663  0.98843634  0.78165104    -0.00500
H1351       H  0.28729801  0.87952149  0.73486089     0.14100
H1352       H  0.24423889  0.98902057  0.76040257     0.13900
C1353       C  0.38993403  0.87619777  0.85284622     0.85700
C1354       C  0.41801423  0.85469408  0.83904941    -0.54600
C1355       C  0.40484430  0.83862115  0.80322102     0.08600
C1356       C  0.36234756  0.84385641  0.78577676     0.19500
C1357       C  0.37204550  0.91127067  0.82485037    -0.55300
C1358       C  0.35568533  0.89545843  0.78940017     0.08700
C1359       C  0.35971013  0.84352293  0.84817022    -0.54800
C1360       C  0.34858709  0.82053470  0.81537917     0.09300
H1361       H  0.44672626  0.85600941  0.85644109     0.13800
H1362       H  0.34969232  0.83078813  0.75690718    -0.00500
H1363       H  0.36919173  0.94481645  0.83329471     0.14100
H1364       H  0.35079374  0.83589897  0.87135787     0.13900
O1365       O  0.35347421  0.85755930  0.55056898    -0.58600
C1366       C  0.34861118  0.92924128  0.61375214     0.74000
O1367       O  0.34332527  0.98862099  0.54395943    -0.59800
C1368       C  0.35080680  0.85314366  0.51682159     0.74000
C1369       C  0.23933648  0.90134619  0.53540082     0.76400
Cd1370     Cd  0.31321978  0.91683114  0.53923810     1.37500
O1371       O  0.34671444  0.89022372  0.60153805    -0.58600
O1372       O  0.26455749  0.87325447  0.54720495    -0.57400
C1373       C  0.35186342  0.98202254  0.51514585     0.76300
O1374       O  0.24591939  0.93482353  0.51871812    -0.59800
O1375       O  0.33396103  0.96005987  0.59104341    -0.58300
O1376       O  0.32808321  0.87798494  0.49290100    -0.58300
O1377       O  0.33716420  0.94873096  0.49537220    -0.57400
C1378       C  0.37071588  0.81810243  0.50346858    -0.03300
O1379       O  0.38163562  0.85468575  0.45245872    -0.58600
C1380       C  0.40693895  0.92381099  0.38803922     0.74000
O1381       O  0.42353181  0.96801209  0.50604949    -0.59800
C1382       C  0.39331955  0.84444828  0.48681257     0.74000
C1383       C  0.49765930  0.90135961  0.46502609     0.76400
Cd1384     Cd  0.42679950  0.91206745  0.46180669     1.37500
O1385       O  0.39721880  0.88873276  0.40004447    -0.58600
O1386       O  0.47516232  0.86993397  0.45404355    -0.57400
C1387       C  0.39491477  0.98693999  0.48426539     0.76300
O1388       O  0.48877772  0.93356838  0.48123557    -0.59800
O1389       O  0.42803892  0.95065173  0.41094052    -0.58300
O1390       O  0.42241704  0.86299602  0.50809051    -0.58300
O1391       O  0.38271488  0.97354011  0.45074229    -0.57400
C1392       C  0.37228660  0.68299275  0.49940384    -0.03300
C1393       C  0.28338215  0.75042404  0.45563527     0.85700
C1394       C  0.30578942  0.70843211  0.46701335    -0.54600
C1395       C  0.34153324  0.71045469  0.46800070     0.08600
C1396       C  0.34671595  0.75342852  0.44717473     0.19500
C1397       C  0.30735673  0.78594309  0.47812196    -0.55300
C1398       C  0.34117090  0.78951007  0.47457650     0.08700
C1399       C  0.28020762  0.75974875  0.41572843    -0.54800
C1400       C  0.31228260  0.75804417  0.40860766     0.09300
H1401       H  0.29460724  0.68170167  0.47843221     0.13800
H1402       H  0.37264208  0.75508275  0.44154310    -0.00500
H1403       H  0.29850331  0.80406288  0.49803390     0.14100
H1404       H  0.25359515  0.76550141  0.39437458     0.13900
C1405       C  0.30923534  0.75067679  0.36622221     0.85700
C1406       C  0.30728780  0.79178058  0.34196415    -0.54600
C1407       C  0.30317881  0.78286390  0.30523786     0.08600
C1408       C  0.29952708  0.73228148  0.29533460     0.19500
C1409       C  0.27374477  0.72447573  0.34399097    -0.55300
C1410       C  0.26795648  0.71543682  0.30714280     0.08700
C1411       C  0.33986899  0.72393448  0.36016546    -0.54800
C1412       C  0.33327371  0.70902287  0.32366227     0.09300
H1413       H  0.30871046  0.82508425  0.35275174     0.13800
H1414       H  0.29583565  0.72556175  0.26557818    -0.00500
H1415       H  0.25394288  0.71426959  0.35637098     0.14100
H1416       H  0.36302425  0.71361519  0.38423726     0.13900
C1417       C  0.43083769  0.73370505  0.09406329     0.85700
C1418       C  0.41047803  0.77481352  0.07109550    -0.54600
C1419       C  0.40376534  0.77324444  0.03308269     0.08600
C1420       C  0.42104235  0.73294095  0.02214035     0.19500
C1421       C  0.40730243  0.69489860  0.07233054    -0.55300
C1422       C  0.40175133  0.69478697  0.03421106     0.08700
C1423       C  0.46600192  0.72978248  0.08477762    -0.54800
C1424       C  0.46086030  0.73070404  0.04761270     0.09300
H1425       H  0.40051597  0.80142627  0.08341624     0.13800
H1426       H  0.41821275  0.73255530  0.99206033    -0.00500
H1427       H  0.39762144  0.00391523  0.08690745     0.14100
H1428       H  0.99394858  0.72631133  0.10457026     0.13900
C1429       C  0.43843922  0.73588843  0.13840546     0.85700
C1430       C  0.47362302  0.76261332  0.16056924    -0.54600
C1431       C  0.48024256  0.76703729  0.19803949     0.08600
C1432       C  0.44958524  0.74859919  0.21000564     0.19500
C1433       C  0.44298529  0.69292199  0.16092642    -0.55300
C1434       C  0.44696284  0.69880144  0.19831951     0.08700
C1435       C  0.40685448  0.75744286  0.14715134    -0.54800
C1436       C  0.41474057  0.77156158  0.18349617     0.09300
H1437       H  0.99290775  0.77616700  0.14729595     0.13800
H1438       H  0.45393236  0.75371177  0.24014339    -0.00500
H1439       H  0.44242830  0.99462605  0.14795926     0.14100
H1440       H  0.38166064  0.76672016  0.12493977     0.13900
C1441       C  0.26284950  0.86210034  0.22196815     0.85700
C1442       C  0.26384918  0.83390215  0.25558575    -0.54600
C1443       C  0.29811282  0.81885832  0.27650004     0.08600
C1444       C  0.32899654  0.83839181  0.26328055     0.19500
C1445       C  0.28882085  0.90089868  0.23840207    -0.55300
C1446       C  0.32287232  0.88936679  0.26121942     0.08700
C1447       C  0.28256258  0.83255485  0.20234468    -0.54800
C1448       C  0.31900852  0.82457225  0.22192394     0.09300
H1449       H  0.23942258  0.82545297  0.26123115     0.13800
H1450       H  0.35690089  0.82731854  0.28070731    -0.00500
H1451       H  0.28021759  0.93470743  0.23392348     0.14100
H1452       H  0.26866373  0.82009957  0.17441658     0.13900
C1453       C  0.38867303  0.93845711  0.34990396     0.85700
C1454       C  0.36118341  0.97233229  0.35076721    -0.54600
C1455       C  0.34593263  0.66235754  0.31856216     0.08600
C1456       C  0.35397220  0.97272060  0.28505145     0.19500
C1457       C  0.36688723  0.90455688  0.32275743    -0.55300
C1458       C  0.34777129  0.92101857  0.28840625     0.08700
C1459       C  0.41389712  0.96001456  0.33224833    -0.54800
C1460       C  0.39650703  0.97595271  0.29713766     0.09300
H1461       H  0.35581523  0.64544137  0.37624274     0.13800
H1462       H  0.33894314  0.98730622  0.25716497    -0.00500
H1463       H  0.36528398  0.87060540  0.33099435     0.14100
H1464       H  0.44337054  0.95764998  0.34465937     0.13900
C1465       C  0.44545530  0.99485007  0.22529120     0.85700
C1466       C  0.43089551  0.95043486  0.20640625    -0.54600
C1467       C  0.42427552  0.91858789  0.22935451     0.08600
C1468       C  0.44012934  0.93232184  0.27059368     0.19500
C1469       C  0.41988547  0.00610259  0.24756264    -0.55300
C1470       C  0.41761810  0.97359541  0.27148386     0.08700
C1471       C  0.48221557  0.98234040  0.25474320    -0.54800
C1472       C  0.47993179  0.94913178  0.27814236     0.09300
H1473       H  0.42126289  0.94652022  0.17628829     0.13800
H1474       H  0.43857184  0.90538614  0.28976450    -0.00500
H1475       H  0.40475856  0.70285086  0.24467219     0.14100
H1476       H  0.00813050  0.99710925  0.25547699     0.13900
C1477       C  0.35578430  0.86756484  0.15072933     0.85700
C1478       C  0.33148224  0.83789729  0.16361270    -0.54600
C1479       C  0.34572350  0.82611303  0.20073705     0.08600
C1480       C  0.38798647  0.83774606  0.21767802     0.19500
C1481       C  0.36678339  0.90372019  0.17951466    -0.55300
C1482       C  0.39016242  0.88984439  0.21368842     0.08700
C1483       C  0.39036063  0.84216447  0.15554200    -0.54800
C1484       C  0.40392855  0.81894951  0.18813740     0.09300
H1485       H  0.30342735  0.83315652  0.14530423     0.13800
H1486       H  0.40209268  0.82533741  0.24656353    -0.00500
H1487       H  0.36263910  0.93814746  0.17125403     0.14100
H1488       H  0.39997878  0.83801462  0.13229617     0.13900
C1489       C  0.62103163  0.16602477  0.50207820    -0.03300
O1490       O  0.59868444  0.09524796  0.60101451    -0.58600
C1491       C  0.60146580  0.13066896  0.51550033     0.74000
O1492       O  0.59353719  0.33032319  0.54418266    -0.59800
C1493       C  0.59823307  0.05673010  0.61363331     0.74000
C1494       C  0.48948468  0.08514261  0.53541442     0.76400
Cd1495     Cd  0.56320109  0.06881004  0.53889434     1.37500
O1496       O  0.60252146  0.12802464  0.54886104    -0.58600
O1497       O  0.51489548  0.11304381  0.54748519    -0.57400
C1498       C  0.60116939  0.33571009  0.51468894     0.76300
O1499       O  0.49577907  0.05209721  0.51812730    -0.59800
O1500       O  0.57965089  0.10479106  0.49181515    -0.58300
O1501       O  0.58146938  0.02651404  0.59125925    -0.58300
O1502       O  0.58556090  0.03473508  0.49454037    -0.57400
O1503       O  0.63988151  0.08293000  0.39744652    -0.58600
C1504       C  0.64399441  0.14012067  0.48525036     0.74000
O1505       O  0.67210618  0.35017497  0.50529728    -0.59800
C1506       C  0.65591693  0.05231239  0.38649290     0.74000
C1507       C  0.74756356  0.08225549  0.46177901     0.76400
Cd1508     Cd  0.67627401  0.07067653  0.45974839     1.37500
O1509       O  0.63423719  0.13309248  0.45035573    -0.58600
O1510       O  0.72496093  0.11370768  0.45141299    -0.57400
C1511       C  0.64414198  0.32988124  0.48371558     0.76300
O1512       O  0.73854264  0.04946812  0.47735020    -0.59800
O1513       O  0.67147349  0.11893228  0.50663539    -0.58300
O1514       O  0.68299800  0.03307854  0.40995253    -0.58300
O1515       O  0.63287911  0.00821665  0.45028423    -0.57400
C1516       C  0.62135080  0.30156981  0.49979064    -0.03300
C1517       C  0.67839881  0.25045805  0.09414202     0.85700
C1518       C  0.65486903  0.28855512  0.07188290    -0.54600
C1519       C  0.65031103  0.28839540  0.03400872     0.08600
C1520       C  0.67066346  0.25062280  0.02269686     0.19500
C1521       C  0.65936217  0.20883897  0.07120462    -0.55300
C1522       C  0.65369520  0.20989942  0.03345159     0.08700
C1523       C  0.71423108  0.25557755  0.08582152    -0.54800
C1524       C  0.71023895  0.25377491  0.04889727     0.09300
H1525       H  0.64385051  0.97935988  0.08624388     0.13800
H1526       H  0.66835755  0.25087798  0.99275639    -0.00500
H1527       H  0.64938674  0.18221905  0.08338200     0.14100
H1528       H  0.74101381  0.25988544  0.10730397     0.13900
C1529       C  0.68437735  0.24749710  0.13812609     0.85700
C1530       C  0.68954393  0.28959286  0.16199344    -0.54600
C1531       C  0.69398520  0.28172326  0.19900522     0.08600
C1532       C  0.69594380  0.23124732  0.20943470     0.19500
C1533       C  0.71870019  0.21951604  0.15893942    -0.55300
C1534       C  0.72570379  0.21189751  0.19619169     0.08700
C1535       C  0.65263186  0.22524166  0.14643099    -0.54800
C1536       C  0.66065538  0.20932935  0.18249905     0.09300
H1537       H  0.68858831  0.32256066  0.15065047     0.13800
H1538       H  0.70047571  0.22530394  0.23949783    -0.00500
H1539       H  0.73712249  0.20818907  0.14527818     0.14100
H1540       H  0.62740315  0.21692134  0.12385553     0.13900
C1541       C  0.53265343  0.23328375  0.45734173     0.85700
C1542       C  0.55695783  0.19693384  0.47798291    -0.54600
C1543       C  0.59058988  0.19439491  0.47367649     0.08600
C1544       C  0.59508468  0.23180871  0.44687911     0.19500
C1545       C  0.55509305  0.27492474  0.46964346    -0.55300
C1546       C  0.59030314  0.27391522  0.46902765     0.08700
C1547       C  0.52818969  0.22647499  0.41692547    -0.54800
C1548       C  0.55971419  0.22802554  0.40897087     0.09300
H1549       H  0.54846694  0.17764968  0.49756649     0.13800
H1550       H  0.62073768  0.23103217  0.44061692    -0.00500
H1551       H  0.54436159  0.30054444  0.48259185     0.14100
H1552       H  0.50119426  0.22130001  0.39611433     0.13900
C1553       C  0.55578152  0.23325181  0.36636364     0.85700
C1554       C  0.51873152  0.25550965  0.34225620    -0.54600
C1555       C  0.51351388  0.26140656  0.30532085     0.08600
C1556       C  0.54654257  0.24752456  0.29517193     0.19500
C1557       C  0.55703944  0.19120029  0.34444299    -0.55300
C1558       C  0.55279398  0.19796549  0.30709073     0.08700
C1559       C  0.58482381  0.26220254  0.35975815    -0.54800
C1560       C  0.57837513  0.27425329  0.32273900     0.09300
H1561       H  0.99948966  0.26905474  0.35449478     0.13800
H1562       H  0.54295439  0.25342810  0.26529719    -0.00500
H1563       H  0.56023509  0.15924386  0.35778272     0.14100
H1564       H  0.60638657  0.27627278  0.38353299     0.13900
C1565       C  0.73175502  0.02968912  0.28111571     0.85700
C1566       C  0.73132291  0.33484882  0.24799702    -0.54600
C1567       C  0.69765286  0.31834811  0.22675750     0.08600
C1568       C  0.66642698  0.00337382  0.23888374     0.19500
C1569       C  0.70501163  0.06727231  0.26348441    -0.55300
C1570       C  0.67150345  0.05436651  0.24019051     0.08700
C1571       C  0.71197094  0.99993672  0.30060694    -0.54800
C1572       C  0.67575710  0.99019207  0.28039599     0.09300
H1573       H  0.75638342  0.32671778  0.24342150     0.13800
H1574       H  0.63816481  0.32459342  0.22079975    -0.00500
H1575       H  0.71255939  0.10133182  0.26777506     0.14100
H1576       H  0.72593309  0.98868725  0.32889328     0.13900
C1577       C  0.60676566  0.10543273  0.15113002     0.85700
C1578       C  0.63529927  0.13921639  0.15280743    -0.54600
C1579       C  0.64992583  0.16125637  0.18566754     0.08600
C1580       C  0.64037752  0.13693016  0.21760670     0.19500
C1581       C  0.62772515  0.07018447  0.17781441    -0.55300
C1582       C  0.64626206  0.08555913  0.21292588     0.08700
C1583       C  0.58105820  0.12590535  0.16890712    -0.54800
C1584       C  0.59813121  0.14085982  0.20452847     0.09300
H1585       H  0.64123470  0.14697160  0.12791212     0.13800
H1586       H  0.65497185  0.15016746  0.24611546    -0.00500
H1587       H  0.62947765  0.03652579  0.16898907     0.14100
H1588       H  0.55153554  0.12349238  0.15608505     0.13900
C1589       C  0.55285318  0.16097424  0.27907491     0.85700
C1590       C  0.56644085  0.11542476  0.29632960    -0.54600
C1591       C  0.57100395  0.08390226  0.27188897     0.08600
C1592       C  0.55391856  0.09952500  0.23110866     0.19500
C1593       C  0.57732535  0.17186701  0.25555201    -0.55300
C1594       C  0.57714621  0.13991362  0.23015982     0.08700
C1595       C  0.51501546  0.15062699  0.25045466    -0.54800
C1596       C  0.51518080  0.11831264  0.22555415     0.09300
H1597       H  0.57748871  0.11058811  0.32636186     0.13800
H1598       H  0.55367185  0.07313559  0.21081302    -0.00500
H1599       H  0.59322187  0.20196176  0.25869453     0.14100
H1600       H  0.98873092  0.16692408  0.24941513     0.13900
C1601       C  0.63965258  0.03483940  0.34878757     0.85700
C1602       C  0.66221259  0.00065530  0.33776687    -0.54600
C1603       C  0.64731955  0.32275772  0.30058699     0.08600
C1604       C  0.60502425  0.33566077  0.28359824     0.19500
C1605       C  0.63033592  0.06896779  0.31814670    -0.55300
C1606       C  0.60504316  0.05426431  0.28543247     0.08700
C1607       C  0.60318507  0.34605040  0.34552354    -0.54800
C1608       C  0.58910904  0.32048860  0.31459786     0.09300
H1609       H  0.68951289  0.99311752  0.35663299     0.13800
H1610       H  0.59022715  0.32154906  0.25548123    -0.00500
H1611       H  0.63571278  0.10369206  0.32491552     0.14100
H1612       H  0.59393310  0.34457292  0.36937273     0.13900
C1613       C  0.62748639  0.18008700  0.00227913    -0.03300
O1614       O  0.65902215  0.01029186  0.96325779    -0.58600
C1615       C  0.65747980  0.09491101  0.89333815     0.74000
O1616       O  0.68550294  0.14594172  0.00401582    -0.59800
C1617       C  0.65332731  0.01343835  0.99371083     0.74000
C1618       C  0.76067870  0.06359436  0.96592580     0.76400
Cd1619     Cd  0.68912591  0.07824341  0.96872623     1.37500
O1620       O  0.65400192  0.05686792  0.90524561    -0.58600
O1621       O  0.73234993  0.04304379  0.94643672    -0.57400
C1622       C  0.65074388  0.14916951  0.98845669     0.76300
O1623       O  0.75795992  0.08765454  0.99219558    -0.59800
O1624       O  0.67551212  0.12361868  0.91669742    -0.58300
O1625       O  0.67191289  0.04205968  0.01687555    -0.60700
O1626       O  0.63547916  0.12177864  0.96275430    -0.57400
C1627       C  0.62628440  0.31801523  0.00255385    -0.03300
O1628       O  0.59446626  0.05687969  0.09884199    -0.58600
C1629       C  0.59950561  0.01400329  0.01187641     0.74000
O1630       O  0.49661964  0.09568339  0.01316055    -0.59800
C1631       C  0.58860476  0.09335737  0.11163998     0.74000
C1632       C  0.60378606  0.14974774  0.01629902     0.76400
Cd1633     Cd  0.56341189  0.07996202  0.03544390     1.37500
O1634       O  0.59597405  0.01361012  0.04346330    -0.58600
O1635       O  0.61833377  0.12269705  0.04256553    -0.57400
C1636       C  0.49179266  0.06566959  0.03429709     0.76300
O1637       O  0.56913299  0.14670246  0.00019759    -0.59800
O1638       O  0.57957328  0.04098064  0.98781633    -0.58300
O1639       O  0.57006364  0.12220303  0.08879760    -0.58300
O1640       O  0.51736428  0.03844626  0.04806215    -0.57400
C1641       C  0.57554020  0.25111787  0.91025139     0.85700
C1642       C  0.59762666  0.28995222  0.93293518    -0.54600
C1643       C  0.60231840  0.28858491  0.97087191     0.08600
C1644       C  0.58301999  0.24935495  0.98179724     0.19500
C1645       C  0.59631160  0.21000049  0.93320488    -0.55300
C1646       C  0.60137225  0.20999557  0.97092001     0.08700
C1647       C  0.53963764  0.25391581  0.91870579    -0.54800
C1648       C  0.54345066  0.25102859  0.95544562     0.09300
H1649       H  0.60802538  0.98204511  0.91949233     0.13800
H1650       H  0.58519346  0.24893873  0.01170071    -0.00500
H1651       H  0.60854521  0.18504227  0.92158863     0.14100
H1652       H  0.01303495  0.25969813  0.89655414     0.13900
C1653       C  0.56871684  0.24954870  0.86573920     0.85700
C1654       C  0.56311927  0.29228287  0.84228831    -0.54600
C1655       C  0.55771293  0.28520292  0.80485225     0.08600
C1656       C  0.55517267  0.23505247  0.79375758     0.19500
C1657       C  0.53395555  0.22176993  0.84493408    -0.55300
C1658       C  0.52553646  0.21569603  0.80729244     0.08700
C1659       C  0.59995704  0.22802173  0.85612485    -0.54800
C1660       C  0.59082980  0.21260456  0.81980706     0.09300
H1661       H  0.56440979  0.32499821  0.85413815     0.13800
H1662       H  0.54996468  0.22974885  0.76348368    -0.00500
H1663       H  0.01608001  0.20872595  0.85880382     0.14100
H1664       H  0.62528173  0.21847934  0.87802986     0.13900
C1665       C  0.67674328  0.23343656  0.59327643     0.85700
C1666       C  0.65666823  0.27474101  0.57003361    -0.54600
C1667       C  0.64857146  0.27249276  0.53143998     0.08600
C1668       C  0.66651395  0.23271699  0.52101524     0.19500
C1669       C  0.65286752  0.19536146  0.57157649    -0.55300
C1670       C  0.64675390  0.19519949  0.53307475     0.08700
C1671       C  0.71158836  0.22859081  0.58364074    -0.54800
C1672       C  0.70669321  0.23079517  0.54671924     0.09300
H1673       H  0.64877058  0.30216187  0.58315818     0.13800
H1674       H  0.66471916  0.23213344  0.49154783    -0.00500
H1675       H  0.64225640  0.17280793  0.58701302     0.14100
H1676       H  0.73874313  0.22406760  0.60438124     0.13900
C1677       C  0.68527554  0.23544681  0.63829131     0.85700
C1678       C  0.72088242  0.26234122  0.65830986    -0.54600
C1679       C  0.73034611  0.26819444  0.69615010     0.08600
C1680       C  0.70106547  0.24993335  0.71067830     0.19500
C1681       C  0.69077666  0.19266612  0.66200661    -0.55300
C1682       C  0.69755280  0.19988766  0.69976084     0.08700
C1683       C  0.65515613  0.25808171  0.64896890    -0.54800
C1684       C  0.66543406  0.27314365  0.68552930     0.09300
H1685       H  0.73802819  0.27458672  0.64353576     0.13800
H1686       H  0.70717348  0.25534480  0.74109475    -0.00500
H1687       H  0.68864134  0.15986784  0.65012871     0.14100
H1688       H  0.62996838  0.26881561  0.62743018     0.13900
C1689       C  0.51884739  0.03222908  0.72276353     0.85700
C1690       C  0.51920303  0.00363907  0.75586486    -0.54600
C1691       C  0.55307822  0.32199036  0.77689500     0.08600
C1692       C  0.58458777  0.00782337  0.76471181     0.19500
C1693       C  0.54529253  0.07080266  0.74020501    -0.55300
C1694       C  0.57931596  0.05851929  0.76323495     0.08700
C1695       C  0.53882960  0.00278800  0.70327863    -0.54800
C1696       C  0.57531937  0.99597370  0.72306954     0.09300
H1697       H  0.99413832  0.32820563  0.76024419     0.13800
H1698       H  0.61226915  0.99624193  0.78237782    -0.00500
H1699       H  0.53740148  0.10472036  0.73556253     0.14100
H1700       H  0.52615909  0.99161579  0.67467955     0.13900
C1701       C  0.64068484  0.10762387  0.85371797     0.85700
C1702       C  0.61122501  0.14108995  0.84940246    -0.54600
C1703       C  0.59987186  0.16400771  0.81655115     0.08600
C1704       C  0.61308887  0.14045514  0.78672987     0.19500
C1705       C  0.62194312  0.07298029  0.82569978    -0.55300
C1706       C  0.60574702  0.08899328  0.79029832     0.08700
C1707       C  0.66892940  0.12835165  0.83968532    -0.54800
C1708       C  0.65569990  0.14488883  0.80397115     0.09300
H1709       H  0.60234816  0.14849864  0.87257079     0.13800
H1710       H  0.60050506  0.15377081  0.75792915    -0.00500
H1711       H  0.61870605  0.03948225  0.83406758     0.14100
H1712       H  0.69767912  0.12633661  0.85683152     0.13900
C1713       C  0.73786578  0.11913252  0.78239726     0.85700
C1714       C  0.71836957  0.14835646  0.80273881    -0.54600
C1715       C  0.68183538  0.15560873  0.78349605     0.08600
C1716       C  0.67192356  0.14420275  0.74172778     0.19500
C1717       C  0.71123642  0.08090263  0.76522285    -0.55300
C1718       C  0.67712521  0.09356083  0.74298335     0.08700
C1719       C  0.73695112  0.14797851  0.74914702    -0.54800
C1720       C  0.70281568  0.16349648  0.72839677     0.09300
H1721       H  0.73131087  0.15897170  0.83145417     0.13800
H1722       H  0.64411546  0.15588200  0.72456474    -0.00500
H1723       H  0.71908434  0.04687460  0.76936479     0.14100
H1724       H  0.76139874  0.15591853  0.74344128     0.13900
C1725       C  0.61604698  0.04483132  0.65310492     0.85700
C1726       C  0.58819381  0.02338812  0.66718744    -0.54600
C1727       C  0.60152874  0.00678500  0.70278707     0.08600
C1728       C  0.64398775  0.01182070  0.71987641     0.19500
C1729       C  0.63417655  0.07963457  0.68096366    -0.55300
C1730       C  0.65058632  0.06343111  0.71626289     0.08700
C1731       C  0.64623062  0.34515608  0.65703786    -0.54800
C1732       C  0.65743149  0.32187267  0.68969767     0.09300
H1733       H  0.55942708  0.02524754  0.65007580     0.13800
H1734       H  0.65623578  0.33152037  0.74825116    -0.00500
H1735       H  0.63706303  0.11321918  0.67256017     0.14100
H1736       H  0.65509609  0.33788294  0.63376172     0.13900
C1737       C  0.87676107  0.13557656  0.00125482    -0.03300
O1738       O  0.90532669  0.26012897  0.90404705    -0.58600
C1739       C  0.90361852  0.30187659  0.99272213     0.74000
O1740       O  0.93464539  0.16921133  0.00206629    -0.59800
C1741       C  0.90748550  0.22185770  0.89195544     0.74000
C1742       C  0.01074487  0.25082831  0.96572531     0.76400
Cd1743     Cd  0.93888188  0.23696240  0.96749784     1.37500
O1744       O  0.90827487  0.30416818  0.96172180    -0.58600
O1745       O  0.98304289  0.27298255  0.94717567    -0.57400
C1746       C  0.89981624  0.16649594  0.98704193     0.76300
O1747       O  0.00735013  0.22528652  0.99083079    -0.59800
O1748       O  0.92292605  0.27390669  0.01612539    -0.58300
O1749       O  0.92447254  0.19242037  0.91514061    -0.58300
O1750       O  0.88451629  0.19427671  0.96166678    -0.57400
O1751       O  0.84056865  0.25393983  0.10046924    -0.58600
C1752       C  0.85061078  0.30129788  0.01214926     0.74000
O1753       O  0.81835129  0.16818363  0.99999797    -0.59800
C1754       C  0.83847127  0.21471687  0.11074863     0.74000
C1755       C  0.74239873  0.25210629  0.03710183     0.76400
Cd1756     Cd  0.81350339  0.23503513  0.03559548     1.37500
O1757       O  0.85045332  0.29845197  0.04504079    -0.58600
O1758       O  0.77013573  0.27503638  0.05434077    -0.57400
C1759       C  0.85318654  0.16579346  0.01537882     0.76300
O1760       O  0.74533218  0.22508837  0.01271907    -0.59800
O1761       O  0.82805795  0.27685867  0.98772119    -0.58300
O1762       O  0.82423690  0.18590259  0.08582853    -0.58300
O1763       O  0.86807152  0.19339002  0.04106140    -0.57400
C1764       C  0.87688465  0.33085891  0.00211002    -0.03300
C1765       C  0.82560280  0.06436353  0.90975150     0.85700
C1766       C  0.84536434  0.10580786  0.93255372    -0.54600
C1767       C  0.85062041  0.10540776  0.97024699     0.08600
C1768       C  0.83295351  0.06531836  0.98126952     0.19500
C1769       C  0.84841413  0.02593793  0.93248419    -0.55300
C1770       C  0.85293424  0.02678457  0.97049194     0.08700
C1771       C  0.78973608  0.06005789  0.91806743    -0.54800
C1772       C  0.79335998  0.06250639  0.95481481     0.09300
H1773       H  0.85666224  0.13155560  0.92062871     0.13800
H1774       H  0.83519225  0.06555765  0.01119109    -0.00500
H1775       H  0.85832344  0.33382057  0.91818989     0.14100
H1776       H  0.76308323  0.05488588  0.89658499     0.13900
C1777       C  0.81885860  0.06697850  0.86534665     0.85700
C1778       C  0.78394372  0.09457932  0.84501567    -0.54600
C1779       C  0.77540560  0.10136420  0.80746331     0.08600
C1780       C  0.80477372  0.08237259  0.79339828     0.19500
C1781       C  0.81345643  0.02459698  0.84167545    -0.55300
C1782       C  0.80774358  0.03210964  0.80428918     0.08700
C1783       C  0.84976806  0.08956636  0.85562958    -0.54800
C1784       C  0.84033326  0.10502784  0.81920578     0.09300
H1785       H  0.76656911  0.10682796  0.85946949     0.13800
H1786       H  0.79923985  0.08799750  0.76309691    -0.00500
H1787       H  0.81458580  0.32504865  0.85270059     0.14100
H1788       H  0.87497387  0.09959963  0.87748022     0.13900
C1789       C  0.92680725  0.08293012  0.59356362     0.85700
C1790       C  0.90233839  0.12070252  0.57223802    -0.54600
C1791       C  0.89655175  0.12166111  0.53396761     0.08600
C1792       C  0.91665203  0.08483971  0.52150287     0.19500
C1793       C  0.90711957  0.04154753  0.57007261    -0.55300
C1794       C  0.89895212  0.04446144  0.53144862     0.08700
C1795       C  0.96170284  0.08872048  0.58397563    -0.54800
C1796       C  0.95677157  0.08706247  0.54705038     0.09300
H1797       H  0.89054101  0.14212470  0.58741584     0.13800
H1798       H  0.91521009  0.08599642  0.49223951    -0.00500
H1799       H  0.89935157  0.01369673  0.58300564     0.14100
H1800       H  0.48959117  0.09338261  0.60500664     0.13900
C1801       C  0.93524160  0.08086733  0.63838279     0.85700
C1802       C  0.94023360  0.12389255  0.66151311    -0.54600
C1803       C  0.94695707  0.11714678  0.69923976     0.08600
C1804       C  0.95097855  0.06725262  0.71080822     0.19500
C1805       C  0.97108047  0.05463551  0.65867492    -0.55300
C1806       C  0.98042720  0.04908606  0.69655410     0.08700
C1807       C  0.90528590  0.05789402  0.64914762    -0.54800
C1808       C  0.91569862  0.04323920  0.68586228     0.09300
H1809       H  0.93784244  0.15654278  0.64927309     0.13800
H1810       H  0.95707795  0.06225739  0.74127913    -0.00500
H1811       H  0.48928614  0.04232016  0.64457072     0.14100
H1812       H  0.88033372  0.04647795  0.62762807     0.13900
C1813       C  0.98690108  0.19810417  0.78132554     0.85700
C1814       C  0.98599659  0.16965165  0.74792868    -0.54600
C1815       C  0.95190351  0.15401769  0.72721124     0.08600
C1816       C  0.92092788  0.17294071  0.74050391     0.19500
C1817       C  0.96012639  0.23637530  0.76428694    -0.55300
C1818       C  0.92593070  0.22362393  0.74201010     0.08700
C1819       C  0.96741798  0.16841345  0.80140436    -0.54800
C1820       C  0.93087490  0.16114454  0.78215196     0.09300
H1821       H  0.51151377  0.16227278  0.74267103     0.13800
H1822       H  0.89317206  0.16108988  0.72331973    -0.00500
H1823       H  0.96787847  0.27044870  0.76868379     0.14100
H1824       H  0.98041819  0.15731080  0.82997757     0.13900
C1825       C  0.86634699  0.27403791  0.65259270     0.85700
C1826       C  0.89773537  0.97089879  0.65794637    -0.54600
C1827       C  0.90863669  0.99431222  0.69053538     0.08600
C1828       C  0.89370981  0.30581356  0.71965615     0.19500
C1829       C  0.88191506  0.23830794  0.68057559    -0.55300
C1830       C  0.89865625  0.25391663  0.71604908     0.08700
C1831       C  0.83872841  0.29794393  0.66554508    -0.54800
C1832       C  0.85152164  0.31306674  0.70155753     0.09300
H1833       H  0.90702902  0.97800214  0.63486248     0.13800
H1834       H  0.90633007  0.31864640  0.74861166    -0.00500
H1835       H  0.88393995  0.20462433  0.67195968     0.14100
H1836       H  0.81023929  0.29829240  0.64745292     0.13900
C1837       C  0.76826061  0.28493248  0.72140463     0.85700
C1838       C  0.78824266  0.31408221  0.70161360    -0.54600
C1839       C  0.82467371  0.32170938  0.72154541     0.08600
C1840       C  0.83402310  0.30973585  0.76317902     0.19500
C1841       C  0.79482490  0.24652480  0.73893550    -0.55300
C1842       C  0.82888294  0.25897832  0.76187857     0.08700
C1843       C  0.76866716  0.31372619  0.75433155    -0.54800
C1844       C  0.80259099  0.32896577  0.77555491     0.09300
H1845       H  0.77538216  0.32500912  0.67299385     0.13800
H1846       H  0.86163473  0.32154953  0.78083969    -0.00500
H1847       H  0.78705924  0.21257167  0.73421326     0.14100
H1848       H  0.74394696  0.32249315  0.75925815     0.13900
C1849       C  0.89032834  0.20960691  0.85233398     0.85700
C1850       C  0.91822712  0.18812519  0.83835904    -0.54600
C1851       C  0.90480940  0.17174030  0.80266062     0.08600
C1852       C  0.86226317  0.17685396  0.78546028     0.19500
C1853       C  0.87211155  0.24450814  0.82424757    -0.55300
C1854       C  0.85552342  0.22850386  0.78888391     0.08700
C1855       C  0.86034552  0.17677697  0.84813032    -0.54800
C1856       C  0.84887655  0.15370410  0.81541887     0.09300
H1857       H  0.94699526  0.18964423  0.85553707     0.13800
H1858       H  0.84946301  0.16355768  0.75668714    -0.00500
H1859       H  0.86932664  0.27811369  0.83259473     0.14100
H1860       H  0.85173883  0.16931319  0.87154466     0.13900
O1861       O  0.85380900  0.19121842  0.55038559    -0.58600
C1862       C  0.84882084  0.26262278  0.61303481     0.74000
O1863       O  0.84188446  0.32249902  0.54262492    -0.59800
C1864       C  0.85082207  0.18615071  0.51662539     0.74000
C1865       C  0.73910430  0.23383032  0.53530962     0.76400
Cd1866     Cd  0.81289399  0.25003283  0.53858645     1.37500
O1867       O  0.84671659  0.22360113  0.60080874    -0.58600
O1868       O  0.76501719  0.20692595  0.54862202    -0.57400
C1869       C  0.85089843  0.31559344  0.51412491     0.76300
O1870       O  0.74503356  0.26632521  0.51715290    -0.59800
O1871       O  0.83427522  0.29350094  0.59032958    -0.58300
O1872       O  0.82784767  0.21057801  0.49253395    -0.58300
O1873       O  0.83660921  0.28198512  0.49459385    -0.57400
C1874       C  0.87078470  0.15094432  0.50347611    -0.03300
O1875       O  0.88431846  0.18407471  0.45244107    -0.58600
C1876       C  0.90644200  0.25680724  0.38785397     0.74000
O1877       O  0.92366964  0.30239894  0.50523491    -0.59800
C1878       C  0.89374079  0.17726977  0.48728174     0.74000
C1879       C  0.99789523  0.23277638  0.46472298     0.76400
Cd1880     Cd  0.92697128  0.24459938  0.46178017     1.37500
O1881       O  0.89637325  0.22204747  0.39998213    -0.58600
O1882       O  0.97510442  0.20174069  0.45328762    -0.57400
C1883       C  0.89437744  0.32012947  0.48353120     0.76300
O1884       O  0.98924004  0.26470734  0.48139208    -0.59800
O1885       O  0.92779997  0.28349291  0.41071842    -0.58300
O1886       O  0.92101047  0.19855154  0.50900299    -0.58300
O1887       O  0.88168750  0.30508463  0.45053316    -0.57400
C1888       C  0.87166547  0.01561370  0.49948467    -0.03300
C1889       C  0.78325011  0.08371109  0.45542140     0.85700
C1890       C  0.80536821  0.04150197  0.46676444    -0.54600
C1891       C  0.84116842  0.04317089  0.46789270     0.08600
C1892       C  0.84672614  0.08612456  0.44723369     0.19500
C1893       C  0.80739240  0.11897976  0.47802845    -0.55300
C1894       C  0.84124811  0.12236193  0.47455297     0.08700
C1895       C  0.78030558  0.09306343  0.41557071    -0.54800
C1896       C  0.81248716  0.09103985  0.40863824     0.09300
H1897       H  0.79395002  0.01487617  0.47805693     0.13800
H1898       H  0.87267117  0.08748980  0.44163369    -0.00500
H1899       H  0.79857504  0.13710200  0.49796600     0.14100
H1900       H  0.75378619  0.09895242  0.39408712     0.13900
C1901       C  0.80967177  0.08374494  0.36635773     0.85700
C1902       C  0.80734742  0.12490670  0.34206204    -0.54600
C1903       C  0.80328560  0.11603026  0.30535107     0.08600
C1904       C  0.79989303  0.06546561  0.29546776     0.19500
C1905       C  0.77441652  0.05719013  0.34430943    -0.55300
C1906       C  0.76852895  0.04827719  0.30745533     0.08700
C1907       C  0.84048241  0.05736926  0.36021213    -0.54800
C1908       C  0.83382386  0.04243296  0.32368407     0.09300
H1909       H  0.80858620  0.15819524  0.35283373     0.13800
H1910       H  0.79612536  0.05881184  0.26568053    -0.00500
H1911       H  0.75478618  0.04682553  0.35685024     0.14100
H1912       H  0.86373338  0.04714798  0.38422898     0.13900
C1913       C  0.93083241  0.06661318  0.09334308     0.85700
C1914       C  0.91040526  0.10773348  0.07040079    -0.54600
C1915       C  0.90354848  0.10618766  0.03237213     0.08600
C1916       C  0.92082194  0.06590109  0.02136671     0.19500
C1917       C  0.90726471  0.02782050  0.07166614    -0.55300
C1918       C  0.90161450  0.02769206  0.03353074     0.08700
C1919       C  0.96592844  0.06276166  0.08395265    -0.54800
C1920       C  0.96070056  0.06374157  0.04677005     0.09300
H1921       H  0.90052120  0.13436572  0.08275479     0.13800
H1922       H  0.91787745  0.06553079  0.99125380    -0.00500
H1923       H  0.89629866  0.33712190  0.08595803     0.14100
H1924       H  0.49324977  0.06121644  0.10530027     0.13900
C1925       C  0.93849554  0.06876603  0.13770885     0.85700
C1926       C  0.97352369  0.09577942  0.15982160    -0.54600
C1927       C  0.98002459  0.10036014  0.19726860     0.08600
C1928       C  0.94942369  0.08176957  0.20923724     0.19500
C1929       C  0.94326724  0.02587389  0.16043668    -0.55300
C1930       C  0.94719033  0.03191596  0.19784084     0.08700
C1931       C  0.90675560  0.09007512  0.14628927    -0.54800
C1932       C  0.91442593  0.10428029  0.18255234     0.09300
H1933       H  0.49231307  0.11023677  0.14802718     0.13800
H1934       H  0.95368579  0.08706618  0.23933243    -0.00500
H1935       H  0.94176744  0.32649652  0.14707441     0.14100
H1936       H  0.88150557  0.09899516  0.12399615     0.13900
C1937       C  0.76289475  0.19479237  0.22194106     0.85700
C1938       C  0.76391599  0.16716981  0.25586635    -0.54600
C1939       C  0.79820390  0.15198394  0.27661075     0.08600
C1940       C  0.82900890  0.17106397  0.26302295     0.19500
C1941       C  0.78899941  0.23359132  0.23788859    -0.55300
C1942       C  0.82302947  0.22204769  0.26070604     0.08700
C1943       C  0.78227423  0.16466752  0.20236367    -0.54800
C1944       C  0.81880258  0.15694182  0.22170034     0.09300
H1945       H  0.73959519  0.15928598  0.26183475     0.13800
H1946       H  0.85692829  0.15995361  0.28038216    -0.00500
H1947       H  0.78040555  0.26742721  0.23332038     0.14100
H1948       H  0.76824209  0.15213561  0.17446208     0.13900
C1949       C  0.88828829  0.27130969  0.34960810     0.85700
C1950       C  0.86064952  0.30501911  0.35031733    -0.54600
C1951       C  0.84634544  0.99568359  0.31856325     0.08600
C1952       C  0.85368341  0.30541029  0.28464902     0.19500
C1953       C  0.86665313  0.23730783  0.32246337    -0.55300
C1954       C  0.84764985  0.25370491  0.28804019     0.08700
C1955       C  0.91355557  0.29286976  0.33191261    -0.54800
C1956       C  0.89619317  0.30864155  0.29669070     0.09300
H1957       H  0.85640773  0.97889851  0.37628418     0.13800
H1958       H  0.83864222  0.31991065  0.25672971    -0.00500
H1959       H  0.86514402  0.20333780  0.33070652     0.14100
H1960       H  0.94304525  0.29031397  0.34429307     0.13900
C1961       C  0.94537395  0.32712132  0.22481007     0.85700
C1962       C  0.93180125  0.28223804  0.20636949    -0.54600
C1963       C  0.92492482  0.25065809  0.22932363     0.08600
C1964       C  0.94026276  0.26498030  0.27053474     0.19500
C1965       C  0.91928046  0.33819127  0.24659375    -0.55300
C1966       C  0.91723068  0.30597608  0.27088492     0.08700
C1967       C  0.98207178  0.31556610  0.25475922    -0.54800
C1968       C  0.97996973  0.28248477  0.27834716     0.09300
H1969       H  0.92274693  0.27772846  0.17633658     0.13800
H1970       H  0.93886352  0.23817509  0.28988392    -0.00500
H1971       H  0.90525564  0.03639406  0.24453301     0.14100
H1972       H  0.50783207  0.33025575  0.25593912     0.13900
C1973       C  0.85521473  0.20099367  0.15012837     0.85700
C1974       C  0.83065175  0.17213502  0.16321687    -0.54600
C1975       C  0.84516071  0.15962120  0.20015956     0.08600
C1976       C  0.88760991  0.17036896  0.21688246     0.19500
C1977       C  0.86723452  0.23687698  0.17909358    -0.55300
C1978       C  0.89051063  0.22242531  0.21320125     0.08700
C1979       C  0.88918873  0.17463018  0.15442958    -0.54800
C1980       C  0.90294857  0.15139902  0.18697953     0.09300
H1981       H  0.80238212  0.16836105  0.14517685     0.13800
H1982       H  0.90172072  0.15758968  0.24564179    -0.00500
H1983       H  0.86367943  0.27138554  0.17100316     0.14100
H1984       H  0.89850876  0.17039517  0.13100851     0.13900
C1985       C  0.62101358  0.49961032  0.50190821    -0.03300
O1986       O  0.59822061  0.42783060  0.60057665    -0.58600
C1987       C  0.60131430  0.46418751  0.51521732     0.74000
O1988       O  0.59394265  0.66394231  0.54426752    -0.59800
C1989       C  0.59813278  0.38915407  0.61302021     0.74000
C1990       C  0.48963872  0.41866635  0.53597014     0.76400
Cd1991     Cd  0.56303924  0.40183401  0.53841486     1.37500
O1992       O  0.60310140  0.46061568  0.54874908    -0.58600
O1993       O  0.51556603  0.44573609  0.54882552    -0.57400
C1994       C  0.60173298  0.66943410  0.51486592     0.76300
O1995       O  0.49527816  0.38623002  0.51760882    -0.59800
O1996       O  0.57896707  0.43891583  0.49138551    -0.58300
O1997       O  0.58188333  0.35884025  0.59046527    -0.58300
O1998       O  0.58571904  0.36814667  0.49413619    -0.57400
O1999       O  0.63816680  0.41651654  0.39734056    -0.58600
C2000       C  0.64395329  0.47361099  0.48520194     0.74000
O2001       O  0.67287822  0.68346808  0.50550275    -0.59800
C2002       C  0.65462992  0.38666057  0.38604167     0.74000
C2003       C  0.74746191  0.41583136  0.46188137     0.76400
Cd2004     Cd  0.67591733  0.40433444  0.45942482     1.37500
O2005       O  0.63505296  0.46793103  0.45021823    -0.58600
O2006       O  0.72480824  0.44719631  0.45128000    -0.57400
C2007       C  0.64473045  0.66352474  0.48386104     0.76300
O2008       O  0.73836421  0.38308874  0.47742981    -0.59800
O2009       O  0.67063248  0.45129171  0.50664017    -0.58300
O2010       O  0.68239110  0.36821313  0.40915230    -0.58300
O2011       O  0.63283618  0.34119279  0.44964478    -0.57400
C2012       C  0.62185845  0.63525117  0.49984056    -0.03300
C2013       C  0.67874226  0.58330357  0.09439819     0.85700
C2014       C  0.65504569  0.62126385  0.07219067    -0.54600
C2015       C  0.65074574  0.62143668  0.03439440     0.08600
C2016       C  0.67131874  0.58384206  0.02307583     0.19500
C2017       C  0.66002312  0.54160234  0.07140427    -0.55300
C2018       C  0.65436092  0.54289344  0.03365842     0.08700
C2019       C  0.71461916  0.58895164  0.08630020    -0.54800
C2020       C  0.71089315  0.58721634  0.04945985     0.09300
H2021       H  0.64404242  0.31270712  0.08597627     0.13800
H2022       H  0.66911317  0.58423866  0.99316753    -0.00500
H2023       H  0.65016428  0.51477718  0.08356710     0.14100
H2024       H  0.74127397  0.59358000  0.10791423     0.13900
C2025       C  0.68463672  0.58025985  0.13827888     0.85700
C2026       C  0.68931022  0.62242998  0.16187557    -0.54600
C2027       C  0.69384038  0.61475008  0.19888812     0.08600
C2028       C  0.69631800  0.56425709  0.20961964     0.19500
C2029       C  0.71923062  0.55283075  0.15921397    -0.55300
C2030       C  0.72641064  0.54541904  0.19650806     0.08700
C2031       C  0.65312684  0.55749446  0.14655960    -0.54800
C2032       C  0.66113492  0.54181925  0.18267782     0.09300
H2033       H  0.68814648  0.65534903  0.15038091     0.13800
H2034       H  0.70092100  0.55844361  0.23971632    -0.00500
H2035       H  0.73766775  0.54172643  0.14551962     0.14100
H2036       H  0.62796514  0.54899480  0.12396972     0.13900
C2037       C  0.53300254  0.56729170  0.45726415     0.85700
C2038       C  0.55717910  0.53085798  0.47782198    -0.54600
C2039       C  0.59076913  0.52817490  0.47351019     0.08600
C2040       C  0.59539477  0.56562604  0.44678546     0.19500
C2041       C  0.55552522  0.60885169  0.46966173    -0.55300
C2042       C  0.59073335  0.60774384  0.46901892     0.08700
C2043       C  0.52848461  0.56059365  0.41682828    -0.54800
C2044       C  0.55997986  0.56199001  0.40887011     0.09300
H2045       H  0.54866041  0.51165477  0.49743192     0.13800
H2046       H  0.62105330  0.56475264  0.44053921    -0.00500
H2047       H  0.54482434  0.63445737  0.48265753     0.14100
H2048       H  0.50147613  0.55563514  0.39596605     0.13900
C2049       C  0.55590342  0.56714550  0.36624004     0.85700
C2050       C  0.51915733  0.59028398  0.34233840    -0.54600
C2051       C  0.51379097  0.59592702  0.30532743     0.08600
C2052       C  0.54657346  0.58142114  0.29506116     0.19500
C2053       C  0.55621336  0.52496399  0.34409471    -0.55300
C2054       C  0.55188864  0.53171608  0.30671969     0.08700
C2055       C  0.58544002  0.59512992  0.35963662    -0.54800
C2056       C  0.57898020  0.60745269  0.32272501     0.09300
H2057       H  0.99966444  0.60107710  0.35376362     0.13800
H2058       H  0.54299219  0.58732832  0.26518940    -0.00500
H2059       H  0.55892329  0.49297276  0.35731531     0.14100
H2060       H  0.60740335  0.60856775  0.38340043     0.13900
C2061       C  0.73081516  0.36354459  0.28078890     0.85700
C2062       C  0.73140554  0.66819510  0.24733970    -0.54600
C2063       C  0.69764852  0.65171117  0.22634786     0.08600
C2064       C  0.66559289  0.33668210  0.23872075     0.19500
C2065       C  0.70380727  0.40091488  0.26329475    -0.55300
C2066       C  0.67033274  0.38772936  0.24016399     0.08700
C2067       C  0.71125931  0.33348266  0.30036248    -0.54800
C2068       C  0.67503763  0.32356127  0.28022012     0.09300
H2069       H  0.75630726  0.66026248  0.24237946     0.13800
H2070       H  0.63827777  0.65825967  0.22075739    -0.00500
H2071       H  0.71112772  0.43514722  0.26763791     0.14100
H2072       H  0.72526204  0.32260836  0.32876896     0.13900
C2073       C  0.60578781  0.43893856  0.15138464     0.85700
C2074       C  0.63509679  0.47179251  0.15319003    -0.54600
C2075       C  0.64990500  0.49392307  0.18602293     0.08600
C2076       C  0.63955379  0.47036620  0.21780803     0.19500
C2077       C  0.62585934  0.40345230  0.17828273    -0.55300
C2078       C  0.64465694  0.41880925  0.21330202     0.08700
C2079       C  0.58024491  0.46060413  0.16875554    -0.54800
C2080       C  0.59733265  0.47533401  0.20442882     0.09300
H2081       H  0.64135938  0.47903953  0.12832950     0.13800
H2082       H  0.65420253  0.48356910  0.24631538    -0.00500
H2083       H  0.62722220  0.36968860  0.16950209     0.14100
H2084       H  0.55069366  0.45879065  0.15578914     0.13900
C2085       C  0.55158714  0.49471287  0.27858292     0.85700
C2086       C  0.56506640  0.44910917  0.29576722    -0.54600
C2087       C  0.56983522  0.41770177  0.27133264     0.08600
C2088       C  0.55296469  0.43344263  0.23059617     0.19500
C2089       C  0.57617034  0.50573327  0.25525967    -0.55300
C2090       C  0.57615370  0.47396435  0.22985465     0.08700
C2091       C  0.51377286  0.48432579  0.24979278    -0.54800
C2092       C  0.51415050  0.45196501  0.22493523     0.09300
H2093       H  0.57592178  0.44415570  0.32579216     0.13800
H2094       H  0.55287926  0.40714766  0.21027790    -0.00500
H2095       H  0.59208777  0.53583336  0.25856604     0.14100
H2096       H  0.98929807  0.49884493  0.24934428     0.13900
C2097       C  0.63845092  0.36914240  0.34834205     0.85700
C2098       C  0.66133921  0.33525500  0.33743569    -0.54600
C2099       C  0.64822119  0.65691679  0.30088357     0.08600
C2100       C  0.60584001  0.66932659  0.28409023     0.19500
C2101       C  0.62909635  0.40317962  0.31767705    -0.55300
C2102       C  0.60398066  0.38827900  0.28494931     0.08700
C2103       C  0.60451114  0.67899969  0.34626412    -0.54800
C2104       C  0.59028783  0.65367450  0.31517094     0.09300
H2105       H  0.68870174  0.32805256  0.35631280     0.13800
H2106       H  0.59106326  0.65521426  0.25597072    -0.00500
H2107       H  0.63426993  0.43794596  0.32440070     0.14100
H2108       H  0.59550765  0.67713810  0.37025948     0.13900
C2109       C  0.62795283  0.51322363  0.00242327    -0.03300
O2110       O  0.65874680  0.34381174  0.96266303    -0.58600
C2111       C  0.65702834  0.42863778  0.89274389     0.74000
O2112       O  0.68584672  0.47955311  0.00337415    -0.59800
C2113       C  0.65328263  0.34683721  0.99325011     0.74000
C2114       C  0.76071726  0.39787359  0.96517503     0.76400
Cd2115     Cd  0.68908457  0.41183051  0.96807410     1.37500
O2116       O  0.65440036  0.39027783  0.90453256    -0.58600
O2117       O  0.73235326  0.37756764  0.94544880    -0.57400
C2118       C  0.65102479  0.48246441  0.98830549     0.76300
O2119       O  0.75798921  0.42161693  0.99161104    -0.59800
O2120       O  0.67442563  0.45761710  0.91618054    -0.58300
O2121       O  0.67203001  0.37540267  0.01635685    -0.60700
O2122       O  0.63556217  0.45497372  0.96276134    -0.57400
C2123       C  0.62675892  0.65117284  0.00301170    -0.03300
O2124       O  0.59343008  0.38988803  0.09944220    -0.58600
C2125       C  0.59961077  0.34735387  0.01185143     0.74000
O2126       O  0.49711353  0.42990037  0.01478983    -0.59800
C2127       C  0.58774946  0.42662425  0.11196673     0.74000
C2128       C  0.60428169  0.48274549  0.01653209     0.76400
Cd2129     Cd  0.56344091  0.41302759  0.03579579     1.37500
O2130       O  0.59600368  0.34662103  0.04342098    -0.58600
O2131       O  0.61885428  0.45524128  0.04244541    -0.57400
C2132       C  0.49156708  0.39813554  0.03393553     0.76300
O2133       O  0.56955151  0.48011823  0.00085024    -0.59800
O2134       O  0.57977697  0.37459718  0.98798686    -0.58300
O2135       O  0.56968514  0.45549987  0.08889674    -0.58300
O2136       O  0.51643039  0.36958037  0.04572290    -0.57400
C2137       C  0.57595661  0.58458899  0.91048825     0.85700
C2138       C  0.59825246  0.62328790  0.93329108    -0.54600
C2139       C  0.60294911  0.62178983  0.97124247     0.08600
C2140       C  0.58362772  0.58259545  0.98210714     0.19500
C2141       C  0.59664931  0.54332531  0.93332394    -0.55300
C2142       C  0.60182656  0.54322377  0.97110296     0.08700
C2143       C  0.54013124  0.58751756  0.91910607    -0.54800
C2144       C  0.54407229  0.58451284  0.95587246     0.09300
H2145       H  0.60751091  0.31561265  0.91925498     0.13800
H2146       H  0.58584222  0.58208520  0.01202216    -0.00500
H2147       H  0.60871139  0.51831321  0.92153450     0.14100
H2148       H  0.01255688  0.59277684  0.89608977     0.13900
C2149       C  0.56889227  0.58311879  0.86585961     0.85700
C2150       C  0.56339511  0.62591814  0.84248502    -0.54600
C2151       C  0.55771020  0.61888545  0.80497325     0.08600
C2152       C  0.55493360  0.56882607  0.79374400     0.19500
C2153       C  0.53391255  0.55562372  0.84505961    -0.55300
C2154       C  0.52533869  0.54965020  0.80736052     0.08700
C2155       C  0.59990633  0.56136683  0.85597192    -0.54800
C2156       C  0.59052093  0.54611371  0.81956149     0.09300
H2157       H  0.56490956  0.65861770  0.85441929     0.13800
H2158       H  0.54956936  0.56362411  0.76342828    -0.00500
H2159       H  0.01560114  0.54195950  0.85825381     0.14100
H2160       H  0.62522038  0.55152037  0.87774330     0.13900
C2161       C  0.67680124  0.56678831  0.59306623     0.85700
C2162       C  0.65707192  0.60822909  0.56988620    -0.54600
C2163       C  0.64901269  0.60599756  0.53134361     0.08600
C2164       C  0.66682037  0.56606836  0.52090281     0.19500
C2165       C  0.65272008  0.52894489  0.57129858    -0.55300
C2166       C  0.64682174  0.52868094  0.53287938     0.08700
C2167       C  0.71175512  0.56165763  0.58359993    -0.54800
C2168       C  0.70699528  0.56391242  0.54669256     0.09300
H2169       H  0.64936053  0.63578550  0.58300018     0.13800
H2170       H  0.66508297  0.56548426  0.49145145    -0.00500
H2171       H  0.64162297  0.50678649  0.58659562     0.14100
H2172       H  0.73886156  0.55714068  0.60442948     0.13900
C2173       C  0.68492485  0.56878788  0.63793658     0.85700
C2174       C  0.72051383  0.59548413  0.65822218    -0.54600
C2175       C  0.72963939  0.60142916  0.69600891     0.08600
C2176       C  0.70011716  0.58320174  0.71022225     0.19500
C2177       C  0.69010839  0.52598272  0.66151537    -0.55300
C2178       C  0.69660748  0.53312614  0.69920622     0.08700
C2179       C  0.65467061  0.59158478  0.64829059    -0.54800
C2180       C  0.66466429  0.60658296  0.68483665     0.09300
H2181       H  0.73794736  0.60749292  0.64367786     0.13800
H2182       H  0.70596995  0.58854725  0.74060266    -0.00500
H2183       H  0.68807931  0.49321163  0.64960385     0.14100
H2184       H  0.62958824  0.60230555  0.62659130     0.13900
C2185       C  0.51842862  0.36595037  0.72263983     0.85700
C2186       C  0.51905323  0.33728071  0.75582905    -0.54600
C2187       C  0.55304034  0.65558702  0.77698567     0.08600
C2188       C  0.58430195  0.34139425  0.76412875     0.19500
C2189       C  0.54493030  0.40446821  0.73994536    -0.55300
C2190       C  0.57904122  0.39211965  0.76269199     0.08700
C2191       C  0.53824664  0.33664631  0.70285413    -0.54800
C2192       C  0.57473119  0.32945693  0.72248393     0.09300
H2193       H  0.99378571  0.66032620  0.75922285     0.13800
H2194       H  0.61203570  0.32981389  0.78162841    -0.00500
H2195       H  0.53699568  0.43839523  0.73551796     0.14100
H2196       H  0.52536261  0.32552477  0.67428263     0.13900
C2197       C  0.64015845  0.44132182  0.85314738     0.85700
C2198       C  0.61038397  0.47439256  0.84875294    -0.54600
C2199       C  0.59913338  0.49744607  0.81598091     0.08600
C2200       C  0.61254204  0.47410982  0.78618076     0.19500
C2201       C  0.62177054  0.40656547  0.82508257    -0.55300
C2202       C  0.60550175  0.42257685  0.78969842     0.08700
C2203       C  0.66832919  0.46248490  0.83923635    -0.54800
C2204       C  0.65510340  0.47881275  0.80346268     0.09300
H2205       H  0.60145818  0.48174893  0.87192833     0.13800
H2206       H  0.59991125  0.48740819  0.75737883    -0.00500
H2207       H  0.61869975  0.37300442  0.83341968     0.14100
H2208       H  0.69707060  0.46069490  0.85644973     0.13900
C2209       C  0.73718954  0.45225962  0.78170379     0.85700
C2210       C  0.71775163  0.48151160  0.80205991    -0.54600
C2211       C  0.68121938  0.48888636  0.78286196     0.08600
C2212       C  0.67113222  0.47725180  0.74112599     0.19500
C2213       C  0.71052012  0.41397116  0.76464161    -0.55300
C2214       C  0.67633353  0.42657981  0.74244948     0.08700
C2215       C  0.73609700  0.48104259  0.74834650    -0.54800
C2216       C  0.70192683  0.49655861  0.72769326     0.09300
H2217       H  0.73078917  0.49225308  0.83071945     0.13800
H2218       H  0.64330036  0.48889134  0.72399830    -0.00500
H2219       H  0.71841218  0.37994605  0.76879157     0.14100
H2220       H  0.76048104  0.48903570  0.74254607     0.13900
C2221       C  0.61572631  0.37729941  0.65252745     0.85700
C2222       C  0.58786254  0.35523493  0.66630494    -0.54600
C2223       C  0.60105917  0.33914374  0.70207498     0.08600
C2224       C  0.64349036  0.34464976  0.71940136     0.19500
C2225       C  0.63324437  0.41236727  0.68044513    -0.55300
C2226       C  0.64970543  0.39633837  0.71580451     0.08700
C2227       C  0.64514782  0.67871419  0.65641297    -0.54800
C2228       C  0.65655466  0.65530180  0.68899262     0.09300
H2229       H  0.55914685  0.35656193  0.64895447     0.13800
H2230       H  0.65620288  0.66492139  0.74785959    -0.00500
H2231       H  0.63590151  0.44599981  0.67201157     0.14100
H2232       H  0.65356054  0.67136818  0.63286884     0.13900
C2233       C  0.87733910  0.46863696  0.00102072    -0.03300
O2234       O  0.90448032  0.59323925  0.90299565    -0.58600
C2235       C  0.90416237  0.63518705  0.99307285     0.74000
O2236       O  0.93498390  0.50265933  0.00161823    -0.59800
C2237       C  0.90652813  0.55489660  0.89099378     0.74000
C2238       C  0.01048626  0.58363291  0.96525289     0.76400
Cd2239     Cd  0.93855418  0.57024019  0.96660265     1.37500
O2240       O  0.90963918  0.63866649  0.96252220    -0.58600
O2241       O  0.98360863  0.60803517  0.94855022    -0.57400
C2242       C  0.90015558  0.49976718  0.98675525     0.76300
O2243       O  0.00626688  0.55575286  0.98836318    -0.59800
O2244       O  0.92242999  0.60590104  0.01571265    -0.58300
O2245       O  0.92350090  0.52557635  0.91423555    -0.58300
O2246       O  0.88457730  0.52752168  0.96142437    -0.57400
O2247       O  0.84289568  0.58534507  0.10021220    -0.58600
C2248       C  0.85141026  0.63460251  0.01289705     0.74000
O2249       O  0.81895001  0.50109642  0.99991620    -0.59800
C2250       C  0.83959542  0.54645397  0.11055469     0.74000
C2251       C  0.74338236  0.58548317  0.03809568     0.76400
Cd2252     Cd  0.81433704  0.56780109  0.03579695     1.37500
O2253       O  0.85157229  0.63133550  0.04588316    -0.58600
O2254       O  0.77194946  0.60586942  0.05728565    -0.57400
C2255       C  0.85378408  0.49867594  0.01525160     0.76300
O2256       O  0.74565318  0.56075335  0.01196706    -0.59800
O2257       O  0.82867804  0.61042332  0.98839375    -0.58300
O2258       O  0.82425664  0.51791230  0.08570834    -0.58300
O2259       O  0.86871672  0.52614854  0.04099917    -0.57400
C2260       C  0.87757475  0.66421168  0.00275545    -0.03300
C2261       C  0.82578760  0.39778071  0.90920350     0.85700
C2262       C  0.84606383  0.43896955  0.93211313    -0.54600
C2263       C  0.85118967  0.43865077  0.96982876     0.08600
C2264       C  0.83305603  0.39895133  0.98074167     0.19500
C2265       C  0.84820435  0.35905363  0.93198759    -0.55300
C2266       C  0.85270593  0.36007552  0.97002100     0.08700
C2267       C  0.78991543  0.39410621  0.91751958    -0.54800
C2268       C  0.79347884  0.39669662  0.95421439     0.09300
H2269       H  0.85783457  0.46435943  0.92027444     0.13800
H2270       H  0.83522272  0.39928455  0.01064126    -0.00500
H2271       H  0.85877055  0.66664997  0.91898728     0.14100
H2272       H  0.76325301  0.38898514  0.89604234     0.13900
C2273       C  0.81869236  0.40032054  0.86465135     0.85700
C2274       C  0.78379704  0.42820423  0.84441938    -0.54600
C2275       C  0.77490938  0.43469512  0.80676059     0.08600
C2276       C  0.80410169  0.41552218  0.79256348     0.19500
C2277       C  0.81290881  0.35790133  0.84097209    -0.55300
C2278       C  0.80698589  0.36540014  0.80353227     0.08700
C2279       C  0.84956538  0.42246616  0.85460917    -0.54800
C2280       C  0.83986201  0.43791936  0.81815481     0.09300
H2281       H  0.76669750  0.44085222  0.85902350     0.13800
H2282       H  0.79843128  0.42104673  0.76222276    -0.00500
H2283       H  0.81452190  0.65755959  0.85320764     0.14100
H2284       H  0.87491515  0.43243488  0.87628242     0.13900
C2285       C  0.92662403  0.41621876  0.59333520     0.85700
C2286       C  0.90192071  0.45389982  0.57195659    -0.54600
C2287       C  0.89644751  0.45509691  0.53374112     0.08600
C2288       C  0.91656555  0.41830174  0.52129836     0.19500
C2289       C  0.90700435  0.37482055  0.56978735    -0.55300
C2290       C  0.89886680  0.37784678  0.53115781     0.08700
C2291       C  0.96152411  0.42218733  0.58379480    -0.54800
C2292       C  0.95664082  0.42058393  0.54689735     0.09300
H2293       H  0.88933994  0.47473548  0.58684040     0.13800
H2294       H  0.91511523  0.41948963  0.49201634    -0.00500
H2295       H  0.89910992  0.34696037  0.58264628     0.14100
H2296       H  0.48940284  0.42763597  0.60551739     0.13900
C2297       C  0.93528990  0.41408324  0.63819858     0.85700
C2298       C  0.94023542  0.45714968  0.66119452    -0.54600
C2299       C  0.94703315  0.45050103  0.69892627     0.08600
C2300       C  0.95122632  0.40070475  0.71068952     0.19500
C2301       C  0.97127177  0.38793042  0.65856599    -0.55300
C2302       C  0.98072437  0.38252828  0.69651867     0.08700
C2303       C  0.90542055  0.39116369  0.64908558    -0.54800
C2304       C  0.91595948  0.37663509  0.68583703     0.09300
H2305       H  0.93766745  0.48975872  0.64884835     0.13800
H2306       H  0.95734213  0.39583512  0.74117781    -0.00500
H2307       H  0.48865446  0.37622480  0.64457799     0.14100
H2308       H  0.88046851  0.37962361  0.62763481     0.13900
C2309       C  0.98652619  0.53128882  0.78088716     0.85700
C2310       C  0.98575804  0.50293719  0.74752822    -0.54600
C2311       C  0.95172498  0.48739338  0.72670306     0.08600
C2312       C  0.92062461  0.50616069  0.73986113     0.19500
C2313       C  0.95969818  0.56958904  0.76388953    -0.55300
C2314       C  0.92553566  0.55687376  0.74144895     0.08700
C2315       C  0.96698040  0.50152072  0.80086060    -0.54800
C2316       C  0.93045701  0.49423265  0.78147694     0.09300
H2317       H  0.51130057  0.49629267  0.74259867     0.13800
H2318       H  0.89293131  0.49420910  0.72259100    -0.00500
H2319       H  0.96731255  0.60365740  0.76863181     0.14100
H2320       H  0.97990014  0.49044591  0.82945439     0.13900
C2321       C  0.86510356  0.60715958  0.65216372     0.85700
C2322       C  0.89838601  0.30426428  0.65807502    -0.54600
C2323       C  0.90905839  0.32775984  0.69063431     0.08600
C2324       C  0.89286127  0.63911752  0.71912894     0.19500
C2325       C  0.88120874  0.57153942  0.68010307    -0.55300
C2326       C  0.89812381  0.58721290  0.71553290     0.08700
C2327       C  0.83751052  0.63064307  0.66537587    -0.54800
C2328       C  0.85053982  0.64601688  0.70130127     0.09300
H2329       H  0.90794138  0.31125948  0.63513466     0.13800
H2330       H  0.90560131  0.65203001  0.74804145    -0.00500
H2331       H  0.88334588  0.53790392  0.67144467     0.14100
H2332       H  0.80892286  0.63060682  0.64754767     0.13900
C2333       C  0.76755123  0.61798952  0.72138421     0.85700
C2334       C  0.78736566  0.64763156  0.70170735    -0.54600
C2335       C  0.82387659  0.65497705  0.72146259     0.08600
C2336       C  0.83341883  0.64250579  0.76295285     0.19500
C2337       C  0.79413512  0.57942766  0.73829666    -0.55300
C2338       C  0.82824754  0.59176338  0.76115975     0.08700
C2339       C  0.76822238  0.64618679  0.75478226    -0.54800
C2340       C  0.80223852  0.66141236  0.77586803     0.09300
H2341       H  0.77441999  0.65881068  0.67315716     0.13800
H2342       H  0.86111519  0.65417058  0.78050173    -0.00500
H2343       H  0.78635624  0.54550740  0.73327742     0.14100
H2344       H  0.74363316  0.65456890  0.76012006     0.13900
C2345       C  0.88949197  0.54246325  0.85142302     0.85700
C2346       C  0.91752265  0.52102793  0.83758095    -0.54600
C2347       C  0.90425909  0.50465672  0.80187001     0.08600
C2348       C  0.86172274  0.50969412  0.78451884     0.19500
C2349       C  0.87134612  0.57727463  0.82333993    -0.55300
C2350       C  0.85490597  0.56128240  0.78797000     0.08700
C2351       C  0.85950873  0.50962341  0.84710391    -0.54800
C2352       C  0.84823056  0.48656479  0.81437979     0.09300
H2353       H  0.94625922  0.52259707  0.85485182     0.13800
H2354       H  0.84902184  0.49638513  0.75573505    -0.00500
H2355       H  0.86841602  0.61081373  0.83174125     0.14100
H2356       H  0.85078871  0.50207088  0.87044393     0.13900
O2357       O  0.85667980  0.52759810  0.55033558    -0.58600
C2358       C  0.84762947  0.59583369  0.61262394     0.74000
O2359       O  0.84301943  0.65557856  0.54296500    -0.59800
C2360       C  0.85127553  0.52007729  0.51630439     0.74000
C2361       C  0.73947814  0.56724877  0.53533914     0.76400
Cd2362     Cd  0.81311928  0.58383307  0.53816372     1.37500
O2363       O  0.84591196  0.55688403  0.60027925    -0.58600
O2364       O  0.76549587  0.54042270  0.54853090    -0.57400
C2365       C  0.85102892  0.64937948  0.51379655     0.76300
O2366       O  0.74525847  0.59984368  0.51717082    -0.59800
O2367       O  0.83318367  0.62684849  0.58999464    -0.58300
O2368       O  0.82669375  0.54278085  0.49221327    -0.58300
O2369       O  0.83572547  0.61660593  0.49362559    -0.57400
C2370       C  0.87085182  0.48446069  0.50315688    -0.03300
O2371       O  0.88232948  0.52063213  0.45224541    -0.58600
C2372       C  0.90815500  0.59024279  0.38837308     0.74000
O2373       O  0.92352613  0.63529542  0.50570202    -0.59800
C2374       C  0.89373921  0.51045301  0.48660696     0.74000
C2375       C  0.99832872  0.56664319  0.46470381     0.76400
Cd2376     Cd  0.92752654  0.57824516  0.46207649     1.37500
O2377       O  0.89850914  0.55506912  0.40030859    -0.58600
O2378       O  0.97570824  0.53532422  0.45390927    -0.57400
C2379       C  0.89472632  0.65370234  0.48365478     0.76300
O2380       O  0.98969529  0.59884844  0.48113612    -0.59800
O2381       O  0.92906787  0.61716746  0.41136627    -0.58300
O2382       O  0.92278352  0.52898069  0.50806371    -0.58300
O2383       O  0.88263681  0.63937185  0.45041874    -0.57400
C2384       C  0.87157037  0.34906845  0.49910422    -0.03300
C2385       C  0.78317029  0.41724877  0.45555950     0.85700
C2386       C  0.80521906  0.37494115  0.46659813    -0.54600
C2387       C  0.84098862  0.37664756  0.46759340     0.08600
C2388       C  0.84646815  0.41970365  0.44698620     0.19500
C2389       C  0.80750419  0.45231138  0.47833243    -0.55300
C2390       C  0.84119193  0.45581166  0.47449477     0.08700
C2391       C  0.78004863  0.42684156  0.41568354    -0.54800
C2392       C  0.81208806  0.42481462  0.40850294     0.09300
H2393       H  0.79382538  0.34821217  0.47781390     0.13800
H2394       H  0.87238821  0.42112207  0.44132264    -0.00500
H2395       H  0.79903695  0.47016391  0.49865070     0.14100
H2396       H  0.75348007  0.43300867  0.39439344     0.13900
C2397       C  0.80903840  0.41729394  0.36614948     0.85700
C2398       C  0.80785817  0.45822814  0.34192251    -0.54600
C2399       C  0.80380777  0.44908519  0.30524092     0.08600
C2400       C  0.79936583  0.39853008  0.29532376     0.19500
C2401       C  0.77322881  0.39180338  0.34382756    -0.55300
C2402       C  0.76751670  0.38245357  0.30708287     0.08700
C2403       C  0.83929410  0.38969302  0.36023612    -0.54800
C2404       C  0.83272795  0.37482804  0.32372189     0.09300
H2405       H  0.80966211  0.49159120  0.35266784     0.13800
H2406       H  0.79565003  0.39162699  0.26558981    -0.00500
H2407       H  0.75321829  0.38207305  0.35608939     0.14100
H2408       H  0.86223485  0.37906806  0.38438117     0.13900
C2409       C  0.93098892  0.39925828  0.09317808     0.85700
C2410       C  0.91104206  0.44072114  0.07030294    -0.54600
C2411       C  0.90415156  0.43921379  0.03220973     0.08600
C2412       C  0.92093153  0.39859738  0.02116488     0.19500
C2413       C  0.90692861  0.36093494  0.07139197    -0.55300
C2414       C  0.90126819  0.36082499  0.03324105     0.08700
C2415       C  0.96602563  0.39468238  0.08373738    -0.54800
C2416       C  0.96076020  0.39573841  0.04654307     0.09300
H2417       H  0.90136555  0.46745563  0.08274477     0.13800
H2418       H  0.91800029  0.39818386  0.99105522    -0.00500
H2419       H  0.89736375  0.67077417  0.08657827     0.14100
H2420       H  0.49302852  0.39306263  0.10513310     0.13900
C2421       C  0.93870358  0.40121781  0.13761919     0.85700
C2422       C  0.97407925  0.42760500  0.15978422    -0.54600
C2423       C  0.98068615  0.43220254  0.19724965     0.08600
C2424       C  0.94995061  0.41414579  0.20924741     0.19500
C2425       C  0.94293511  0.35826270  0.16023573    -0.55300
C2426       C  0.94707171  0.36433856  0.19771051     0.08700
C2427       C  0.90728413  0.42311146  0.14637731    -0.54800
C2428       C  0.91524381  0.43728048  0.18273357     0.09300
H2429       H  0.49164888  0.44274220  0.14756165     0.13800
H2430       H  0.95431159  0.41939222  0.23937247    -0.00500
H2431       H  0.94319341  0.66084159  0.14764754     0.14100
H2432       H  0.88215489  0.43251692  0.12413131     0.13900
C2433       C  0.76381020  0.52849839  0.22222344     0.85700
C2434       C  0.76480288  0.50000323  0.25560763    -0.54600
C2435       C  0.79903112  0.48494459  0.27647146     0.08600
C2436       C  0.83000072  0.50462297  0.26335321     0.19500
C2437       C  0.78978993  0.56722207  0.23886944    -0.55300
C2438       C  0.82386648  0.55560016  0.26156196     0.08700
C2439       C  0.78353741  0.49924726  0.20238802    -0.54800
C2440       C  0.81996942  0.49110687  0.22185755     0.09300
H2441       H  0.74036297  0.49130325  0.26115596     0.13800
H2442       H  0.85791317  0.49353713  0.28075206    -0.00500
H2443       H  0.78119867  0.60105553  0.23463701     0.14100
H2444       H  0.76955658  0.48688978  0.17445384     0.13900
C2445       C  0.88989740  0.60483076  0.35017415     0.85700
C2446       C  0.86251377  0.63886190  0.35104120    -0.54600
C2447       C  0.84533000  0.32825581  0.31839256     0.08600
C2448       C  0.85497094  0.63887114  0.28525600     0.19500
C2449       C  0.86797835  0.57085089  0.32312692    -0.55300
C2450       C  0.84879014  0.58722043  0.28875984     0.08700
C2451       C  0.91503452  0.62620167  0.33231405    -0.54800
C2452       C  0.89749429  0.64205879  0.29717527     0.09300
H2453       H  0.85517184  0.31099847  0.37596857     0.13800
H2454       H  0.83990044  0.65336873  0.25734532    -0.00500
H2455       H  0.86639769  0.53689769  0.33138585     0.14100
H2456       H  0.94450387  0.62384876  0.34462847     0.13900
C2457       C  0.94601105  0.66124493  0.22496049     0.85700
C2458       C  0.93122063  0.61699797  0.20591990    -0.54600
C2459       C  0.92468255  0.58496860  0.22873189     0.08600
C2460       C  0.94066757  0.59839594  0.27007317     0.19500
C2461       C  0.92063506  0.67241590  0.24747182    -0.55300
C2462       C  0.91837318  0.63974975  0.27129347     0.08700
C2463       C  0.98280546  0.64841612  0.25429235    -0.54800
C2464       C  0.98050509  0.61508708  0.27762974     0.09300
H2465       H  0.92156157  0.61324575  0.17579551     0.13800
H2466       H  0.93906114  0.57136647  0.28914197    -0.00500
H2467       H  0.90426157  0.36892321  0.24346630     0.14100
H2468       H  0.50780485  0.66431953  0.25571085     0.13900
C2469       C  0.85634727  0.53297582  0.14996991     0.85700
C2470       C  0.83222349  0.50338362  0.16321458    -0.54600
C2471       C  0.84658852  0.49205436  0.20046474     0.08600
C2472       C  0.88884547  0.50374604  0.21708535     0.19500
C2473       C  0.86746102  0.56938636  0.17853131    -0.55300
C2474       C  0.89084252  0.55581546  0.21283243     0.08700
C2475       C  0.89099588  0.50780251  0.15480751    -0.54800
C2476       C  0.90464845  0.48473877  0.18745003     0.09300
H2477       H  0.80418071  0.49836208  0.14498191     0.13800
H2478       H  0.90311310  0.49152136  0.24600039    -0.00500
H2479       H  0.86315840  0.60373835  0.17008587     0.14100
H2480       H  0.90060450  0.50363869  0.13156438     0.13900
C2481       C  0.62095807  0.83310293  0.50267090    -0.03300
O2482       O  0.59774562  0.76210329  0.60047467    -0.58600
C2483       C  0.60126240  0.79772980  0.51587858     0.74000
O2484       O  0.59451810  0.99780859  0.54524815    -0.59800
C2485       C  0.59748815  0.72354208  0.61305586     0.74000
C2486       C  0.48927858  0.75220566  0.53503801     0.76400
Cd2487     Cd  0.56286809  0.73536678  0.53838066     1.37500
O2488       O  0.60246723  0.79461557  0.54927154    -0.58600
O2489       O  0.51488555  0.77981904  0.54718626    -0.57400
C2490       C  0.60151938  0.00271518  0.51535912     0.76300
O2491       O  0.49526757  0.71918424  0.51750514    -0.59800
O2492       O  0.57930611  0.77219480  0.49195064    -0.58300
O2493       O  0.58099675  0.69320192  0.59065965    -0.58300
O2494       O  0.58638345  0.70198821  0.49442380    -0.57400
O2495       O  0.63903936  0.75044658  0.39778321    -0.58600
C2496       C  0.64396863  0.80719384  0.48594964     0.74000
O2497       O  0.67261571  0.01668518  0.50580283    -0.59800
C2498       C  0.65547207  0.72045416  0.38658977     0.74000
C2499       C  0.74762499  0.75007403  0.46182478     0.76400
Cd2500     Cd  0.67636653  0.73829718  0.45998564     1.37500
O2501       O  0.63487948  0.80122425  0.45098820    -0.58600
O2502       O  0.72464655  0.78100391  0.45045670    -0.57400
C2503       C  0.64439961  0.99672128  0.48431265     0.76300
O2504       O  0.73903088  0.71803204  0.47852993    -0.59800
O2505       O  0.67093854  0.78525783  0.50735151    -0.58300
O2506       O  0.68296432  0.70170480  0.40986580    -0.58300
O2507       O  0.63328688  0.67526229  0.44989696    -0.57400
C2508       C  0.62163441  0.96851295  0.50043387    -0.03300
C2509       C  0.67830572  0.91710242  0.09442352     0.85700
C2510       C  0.65475298  0.95523320  0.07218937    -0.54600
C2511       C  0.65022228  0.95505781  0.03431293     0.08600
C2512       C  0.67057520  0.91728112  0.02300389     0.19500
C2513       C  0.65920622  0.87552943  0.07149659    -0.55300
C2514       C  0.65350705  0.87663258  0.03373827     0.08700
C2515       C  0.71414098  0.92224203  0.08608703    -0.54800
C2516       C  0.71018620  0.92038877  0.04918326     0.09300
H2517       H  0.64392501  0.64503464  0.08631391     0.13800
H2518       H  0.66826956  0.91751649  0.99306570    -0.00500
H2519       H  0.64918588  0.84893701  0.08370260     0.14100
H2520       H  0.74091568  0.92657687  0.10757827     0.13900
C2521       C  0.68444718  0.91396552  0.13840599     0.85700
C2522       C  0.68989925  0.95600440  0.16231744    -0.54600
C2523       C  0.69458710  0.94808968  0.19935468     0.08600
C2524       C  0.69644591  0.89762470  0.20977101     0.19500
C2525       C  0.71872428  0.88577002  0.15897575    -0.55300
C2526       C  0.72602866  0.87818967  0.19627840     0.08700
C2527       C  0.65276195  0.89183635  0.14690043    -0.54800
C2528       C  0.66092908  0.87591129  0.18299159     0.09300
H2529       H  0.68893927  0.98898345  0.15099170     0.13800
H2530       H  0.70116913  0.89167983  0.23987634    -0.00500
H2531       H  0.73692537  0.87436836  0.14508684     0.14100
H2532       H  0.62743310  0.88362794  0.12441509     0.13900
C2533       C  0.53278560  0.90062825  0.45791698     0.85700
C2534       C  0.55704064  0.86431608  0.47864481    -0.54600
C2535       C  0.59061824  0.86158244  0.47426048     0.08600
C2536       C  0.59514252  0.89888349  0.44737304     0.19500
C2537       C  0.55528294  0.94222027  0.47014694    -0.55300
C2538       C  0.59050119  0.94103709  0.46956301     0.08700
C2539       C  0.52822172  0.89368249  0.41748650    -0.54800
C2540       C  0.55968586  0.89511092  0.40945505     0.09300
H2541       H  0.54858345  0.84521261  0.49835166     0.13800
H2542       H  0.62079541  0.89800437  0.44111210    -0.00500
H2543       H  0.54463709  0.96781571  0.48319303     0.14100
H2544       H  0.50119535  0.88863934  0.39668698     0.13900
C2545       C  0.55555569  0.90028143  0.36675416     0.85700
C2546       C  0.51866649  0.92304974  0.34271982    -0.54600
C2547       C  0.51340862  0.92885707  0.30571612     0.08600
C2548       C  0.54627951  0.91449518  0.29553811     0.19500
C2549       C  0.55624405  0.85813400  0.34470193    -0.55300
C2550       C  0.55192603  0.86488432  0.30732156     0.08700
C2551       C  0.58486826  0.92867290  0.36011207    -0.54800
C2552       C  0.57847657  0.94073229  0.32311808     0.09300
H2553       H  0.99935410  0.93534704  0.35384221     0.13800
H2554       H  0.54272168  0.92037530  0.26566829    -0.00500
H2555       H  0.55920214  0.82616668  0.35799363     0.14100
H2556       H  0.60667431  0.94236627  0.38387732     0.13900
C2557       C  0.73126399  0.69649932  0.28045580     0.85700
C2558       C  0.73220133  0.00092819  0.24838754    -0.54600
C2559       C  0.69845082  0.98468064  0.22708686     0.08600
C2560       C  0.66580264  0.67016221  0.23859497     0.19500
C2561       C  0.70428329  0.73408852  0.26337586    -0.55300
C2562       C  0.67071104  0.72121752  0.24021247     0.08700
C2563       C  0.71186295  0.66614566  0.29995566    -0.54800
C2564       C  0.67551750  0.65675251  0.28007848     0.09300
H2565       H  0.75723100  0.99285944  0.24380092     0.13800
H2566       H  0.63894581  0.99155448  0.22086220    -0.00500
H2567       H  0.71171457  0.76824461  0.26800395     0.14100
H2568       H  0.72603158  0.65469988  0.32817675     0.13900
C2569       C  0.60588933  0.77295828  0.15155021     0.85700
C2570       C  0.63495696  0.80604884  0.15332885    -0.54600
C2571       C  0.64982898  0.82798610  0.18621406     0.08600
C2572       C  0.63987256  0.80406190  0.21809332     0.19500
C2573       C  0.62627376  0.73742119  0.17828356    -0.55300
C2574       C  0.64513614  0.75256526  0.21337203     0.08700
C2575       C  0.58042630  0.79422728  0.16924440    -0.54800
C2576       C  0.59765216  0.80881060  0.20497400     0.09300
H2577       H  0.64105631  0.81355013  0.12845299     0.13800
H2578       H  0.65462678  0.81717377  0.24661119    -0.00500
H2579       H  0.62765421  0.70371709  0.16937412     0.14100
H2580       H  0.55088097  0.79235833  0.15639890     0.13900
C2581       C  0.55186179  0.82799028  0.27920661     0.85700
C2582       C  0.56513239  0.78230774  0.29631177    -0.54600
C2583       C  0.57005529  0.75101793  0.27187772     0.08600
C2584       C  0.55335921  0.76688339  0.23115895     0.19500
C2585       C  0.57663892  0.83905549  0.25605725    -0.55300
C2586       C  0.57664641  0.80734656  0.23058087     0.08700
C2587       C  0.51413280  0.81779512  0.25025042    -0.54800
C2588       C  0.51455535  0.78552823  0.22535490     0.09300
H2589       H  0.57583164  0.77722064  0.32632503     0.13800
H2590       H  0.55330451  0.74062439  0.21082253    -0.00500
H2591       H  0.59253643  0.86917917  0.25943676     0.14100
H2592       H  0.98949915  0.83371632  0.24953297     0.13900
C2593       C  0.63936027  0.70293516  0.34885103     0.85700
C2594       C  0.66254639  0.66981718  0.33765573    -0.54600
C2595       C  0.64808093  0.98853854  0.30080625     0.08600
C2596       C  0.60581098  0.00166675  0.28401526     0.19500
C2597       C  0.62941373  0.73702735  0.31825850    -0.55300
C2598       C  0.60436925  0.72191789  0.28556816     0.08700
C2599       C  0.60430462  0.01209060  0.34607441    -0.54800
C2600       C  0.58990008  0.98668858  0.31509753     0.09300
H2601       H  0.69020104  0.66357229  0.35626330     0.13800
H2602       H  0.59087204  0.98765020  0.25589573    -0.00500
H2603       H  0.63428309  0.77182548  0.32501172     0.14100
H2604       H  0.59512658  0.01080998  0.36997902     0.13900
C2605       C  0.62728344  0.84686198  0.00255290    -0.03300
O2606       O  0.65966512  0.67680031  0.96352729    -0.58600
C2607       C  0.65658904  0.76199662  0.89328109     0.74000
O2608       O  0.68539070  0.81299605  0.00422499    -0.59800
C2609       C  0.65374057  0.68009137  0.99386069     0.74000
C2610       C  0.76079953  0.73135348  0.96548735     0.76400
Cd2611     Cd  0.68909045  0.74546131  0.96871929     1.37500
O2612       O  0.65382982  0.72375450  0.90524175    -0.58600
O2613       O  0.73200124  0.71253272  0.94493337    -0.57400
C2614       C  0.65060724  0.81605734  0.98874026     0.76300
O2615       O  0.75841677  0.75402201  0.99266362    -0.59800
O2616       O  0.67408491  0.79103422  0.91662728    -0.58300
O2617       O  0.67199003  0.70904513  0.01685534    -0.60700
O2618       O  0.63539032  0.78867466  0.96302933    -0.57400
C2619       C  0.62626652  0.98464235  0.00280447    -0.03300
O2620       O  0.59417564  0.72434040  0.09944230    -0.58600
C2621       C  0.60001349  0.68053723  0.01224017     0.74000
O2622       O  0.49656052  0.76024979  0.01286695    -0.59800
C2623       C  0.58783493  0.76072968  0.11204433     0.74000
C2624       C  0.60364227  0.81648568  0.01663286     0.76400
Cd2625     Cd  0.56355494  0.74643175  0.03587389     1.37500
O2626       O  0.59710987  0.68077185  0.04410132    -0.58600
O2627       O  0.61829070  0.78933342  0.04278755    -0.57400
C2628       C  0.49220074  0.73095612  0.03485085     0.76300
O2629       O  0.56895518  0.81353609  0.00073614    -0.59800
O2630       O  0.57955689  0.70702947  0.98808672    -0.58300
O2631       O  0.56921569  0.78934024  0.08898030    -0.58300
O2632       O  0.51824711  0.70459440  0.04951587    -0.57400
C2633       C  0.57566677  0.91779721  0.91038333     0.85700
C2634       C  0.59793825  0.95651842  0.93311973    -0.54600
C2635       C  0.60244218  0.95523608  0.97103547     0.08600
C2636       C  0.58289349  0.91621225  0.98186618     0.19500
C2637       C  0.59616528  0.87658254  0.93336669    -0.55300
C2638       C  0.60115895  0.87668963  0.97109245     0.08700
C2639       C  0.53977217  0.92102997  0.91868838    -0.54800
C2640       C  0.54339185  0.91820535  0.95535572     0.09300
H2641       H  0.60824631  0.64897565  0.91972535     0.13800
H2642       H  0.58494227  0.91587052  0.01173416    -0.00500
H2643       H  0.60830542  0.85151355  0.92170180     0.14100
H2644       H  0.01294656  0.92574945  0.89600885     0.13900
C2645       C  0.56864674  0.91604963  0.86586223     0.85700
C2646       C  0.56307127  0.95878794  0.84247748    -0.54600
C2647       C  0.55745926  0.95171726  0.80501807     0.08600
C2648       C  0.55459450  0.90164010  0.79380220     0.19500
C2649       C  0.53373518  0.88833632  0.84519869    -0.55300
C2650       C  0.52502409  0.88237890  0.80750445     0.08700
C2651       C  0.59969600  0.89439614  0.85601920    -0.54800
C2652       C  0.59028065  0.87909118  0.81961506     0.09300
H2653       H  0.56463437  0.99149654  0.85440609     0.13800
H2654       H  0.54918972  0.89639535  0.76348424    -0.00500
H2655       H  0.01661256  0.87431904  0.85869841     0.14100
H2656       H  0.62500184  0.88457044  0.87781899     0.13900
C2657       C  0.67696281  0.90024459  0.59384301     0.85700
C2658       C  0.65709045  0.94164143  0.57063998    -0.54600
C2659       C  0.64886089  0.93935639  0.53203921     0.08600
C2660       C  0.66663920  0.89945917  0.52159022     0.19500
C2661       C  0.65284518  0.86230651  0.57215417    -0.55300
C2662       C  0.64673649  0.86212923  0.53367516     0.08700
C2663       C  0.71179934  0.89515994  0.58418451    -0.54800
C2664       C  0.70684601  0.89727567  0.54723028     0.09300
H2665       H  0.64947057  0.96917421  0.58382297     0.13800
H2666       H  0.66477915  0.89884135  0.49210217    -0.00500
H2667       H  0.64197507  0.83989845  0.58748909     0.14100
H2668       H  0.73896404  0.89070124  0.60492222     0.13900
C2669       C  0.68542829  0.90234726  0.63880952     0.85700
C2670       C  0.72097170  0.92930921  0.65886245    -0.54600
C2671       C  0.73029538  0.93528793  0.69668291     0.08600
C2672       C  0.70101671  0.91685995  0.71115359     0.19500
C2673       C  0.69093917  0.85958501  0.66250418    -0.55300
C2674       C  0.69760372  0.86675787  0.70023028     0.08700
C2675       C  0.65521983  0.92492259  0.64938031    -0.54800
C2676       C  0.66540673  0.94003552  0.68590647     0.09300
H2677       H  0.73822457  0.94140011  0.64414046     0.13800
H2678       H  0.70704243  0.92228076  0.74155650    -0.00500
H2679       H  0.68886201  0.82680240  0.65060574     0.14100
H2680       H  0.63004748  0.93559255  0.62778029     0.13900
C2681       C  0.51846060  0.69937894  0.72257627     0.85700
C2682       C  0.51901219  0.67082427  0.75582286    -0.54600
C2683       C  0.55314581  0.98845711  0.77717939     0.08600
C2684       C  0.58428688  0.67481609  0.76421766     0.19500
C2685       C  0.54503975  0.73788629  0.73988629    -0.55300
C2686       C  0.57909313  0.72547300  0.76280367     0.08700
C2687       C  0.53824066  0.66985312  0.70294181    -0.54800
C2688       C  0.57475468  0.66293551  0.72256457     0.09300
H2689       H  0.99365775  0.99445524  0.75979387     0.13800
H2690       H  0.61201131  0.66321145  0.78173181    -0.00500
H2691       H  0.53723445  0.77183230  0.73526293     0.14100
H2692       H  0.52542299  0.65876791  0.67433346     0.13900
C2693       C  0.63987067  0.77449092  0.85357198     0.85700
C2694       C  0.61000902  0.80747684  0.84892075    -0.54600
C2695       C  0.59897241  0.83048480  0.81612480     0.08600
C2696       C  0.61267634  0.80721429  0.78651337     0.19500
C2697       C  0.62162993  0.73970840  0.82542678    -0.55300
C2698       C  0.60555574  0.75574879  0.78997965     0.08700
C2699       C  0.66820231  0.79565537  0.83984920    -0.54800
C2700       C  0.65523373  0.81185655  0.80402105     0.09300
H2701       H  0.60086368  0.81485381  0.87195783     0.13800
H2702       H  0.60020847  0.82050297  0.75768862    -0.00500
H2703       H  0.61847629  0.70615816  0.83372914     0.14100
H2704       H  0.69688656  0.79389564  0.85724686     0.13900
C2705       C  0.73767284  0.78519986  0.78241530     0.85700
C2706       C  0.71807535  0.81399436  0.80292823    -0.54600
C2707       C  0.68161251  0.82166806  0.78361067     0.08600
C2708       C  0.67175136  0.81060086  0.74176286     0.19500
C2709       C  0.71100664  0.74710145  0.76478926    -0.55300
C2710       C  0.67688407  0.75992604  0.74260994     0.08700
C2711       C  0.73684573  0.81450371  0.74946169    -0.54800
C2712       C  0.70275718  0.83019133  0.72873713     0.09300
H2713       H  0.73100704  0.82447760  0.83166010     0.13800
H2714       H  0.64398781  0.82240601  0.72459141    -0.00500
H2715       H  0.71886063  0.71306498  0.76854160     0.14100
H2716       H  0.76136198  0.82252076  0.74391830     0.13900
C2717       C  0.61533530  0.71166693  0.65249795     0.85700
C2718       C  0.58747377  0.69036100  0.66662613    -0.54600
C2719       C  0.60087644  0.67360131  0.70215844     0.08600
C2720       C  0.64338817  0.67833563  0.71911822     0.19500
C2721       C  0.63374731  0.74633934  0.68045056    -0.55300
C2722       C  0.65023347  0.72994566  0.71568828     0.08700
C2723       C  0.64606381  0.01207568  0.65727553    -0.54800
C2724       C  0.65740265  0.98879082  0.68994346     0.09300
H2725       H  0.55868241  0.69242450  0.64962993     0.13800
H2726       H  0.65679041  0.99859939  0.74868962    -0.00500
H2727       H  0.63670700  0.77995888  0.67217178     0.14100
H2728       H  0.65463180  0.00466927  0.63385310     0.13900
C2729       C  0.87726271  0.80213237  0.00126151    -0.03300
O2730       O  0.90474941  0.92598468  0.90346180    -0.58600
C2731       C  0.90394279  0.96863290  0.99283293     0.74000
O2732       O  0.93494810  0.83620069  0.00205029    -0.59800
C2733       C  0.90714089  0.88767507  0.89155524     0.74000
C2734       C  0.01068055  0.91702521  0.96518782     0.76400
Cd2735     Cd  0.93878391  0.90356382  0.96698307     1.37500
O2736       O  0.90855617  0.97111803  0.96180804    -0.58600
O2737       O  0.98340865  0.94041348  0.94757560    -0.57400
C2738       C  0.90013515  0.83322547  0.98703425     0.76300
O2739       O  0.00685265  0.89033571  0.98932976    -0.59800
O2740       O  0.92310362  0.94033765  0.01597662    -0.58300
O2741       O  0.92436712  0.85850952  0.91485519    -0.58300
O2742       O  0.88465129  0.86082428  0.96155621    -0.57400
O2743       O  0.84197327  0.91948302  0.10020427    -0.58600
C2744       C  0.85099461  0.96791975  0.01247763     0.74000
O2745       O  0.81874436  0.83478436  0.99966101    -0.59800
C2746       C  0.83875635  0.88060007  0.11059526     0.74000
C2747       C  0.74242272  0.91860820  0.03741303     0.76400
Cd2748     Cd  0.81365775  0.90135127  0.03561502     1.37500
O2749       O  0.85031074  0.96552626  0.04521376    -0.58600
O2750       O  0.77030369  0.94124887  0.05479896    -0.57400
C2751       C  0.85353452  0.83217362  0.01536391     0.76300
O2752       O  0.74526833  0.89177429  0.01286326    -0.59800
O2753       O  0.82883131  0.94306111  0.98809794    -0.58300
O2754       O  0.82345435  0.85204345  0.08578073    -0.58300
O2755       O  0.86825611  0.85947519  0.04133737    -0.57400
C2756       C  0.87727253  0.99758314  0.00245684    -0.03300
C2757       C  0.82613366  0.73053053  0.90974177     0.85700
C2758       C  0.84625848  0.77190682  0.93249877    -0.54600
C2759       C  0.85126958  0.77187118  0.97018410     0.08600
C2760       C  0.83331882  0.73210642  0.98126478     0.19500
C2761       C  0.84862766  0.69199904  0.93266444    -0.55300
C2762       C  0.85317215  0.69326426  0.97068205     0.08700
C2763       C  0.79025602  0.72680067  0.91804199    -0.54800
C2764       C  0.79371777  0.72966948  0.95471009     0.09300
H2765       H  0.85810354  0.79717047  0.92064181     0.13800
H2766       H  0.83551973  0.73254771  0.01117305    -0.00500
H2767       H  0.85870559  0.00097721  0.91860440     0.14100
H2768       H  0.76363527  0.72161742  0.89650696     0.13900
C2769       C  0.81906363  0.73284961  0.86518134     0.85700
C2770       C  0.78431891  0.76095564  0.84504966    -0.54600
C2771       C  0.77533638  0.76739837  0.80738910     0.08600
C2772       C  0.80439453  0.74803644  0.79308825     0.19500
C2773       C  0.81299436  0.69039147  0.84147089    -0.55300
C2774       C  0.80698030  0.69786050  0.80398770     0.08700
C2775       C  0.85000016  0.75474833  0.85507241    -0.54800
C2776       C  0.84032189  0.77030272  0.81863674     0.09300
H2777       H  0.76739953  0.77377229  0.85977859     0.13800
H2778       H  0.79865102  0.75354612  0.76273386    -0.00500
H2779       H  0.81503129  0.99173354  0.85336311     0.14100
H2780       H  0.87538867  0.76456159  0.87677252     0.13900
C2781       C  0.92694974  0.74977546  0.59307331     0.85700
C2782       C  0.90238064  0.78754664  0.57178861    -0.54600
C2783       C  0.89662012  0.78868705  0.53349256     0.08600
C2784       C  0.91677670  0.75199452  0.52099737     0.19500
C2785       C  0.90737766  0.70844659  0.56952000    -0.55300
C2786       C  0.89911750  0.71155201  0.53090721     0.08700
C2787       C  0.96183005  0.75574848  0.58354072    -0.54800
C2788       C  0.95690890  0.75428707  0.54660413     0.09300
H2789       H  0.89047634  0.80875056  0.58702412     0.13800
H2790       H  0.91526707  0.75322388  0.49169658    -0.00500
H2791       H  0.89979801  0.68045762  0.58246251     0.14100
H2792       H  0.48940085  0.76082896  0.60470805     0.13900
C2793       C  0.93539998  0.74737200  0.63787971     0.85700
C2794       C  0.94073347  0.79025957  0.66121651    -0.54600
C2795       C  0.94737147  0.78333273  0.69890571     0.08600
C2796       C  0.95100154  0.73338532  0.71023861     0.19500
C2797       C  0.97102976  0.72065991  0.65804335    -0.55300
C2798       C  0.98033480  0.71491885  0.69592036     0.08700
C2799       C  0.90525234  0.72467429  0.64850979    -0.54800
C2800       C  0.91548182  0.70993560  0.68519923     0.09300
H2801       H  0.93852528  0.82296111  0.64910197     0.13800
H2802       H  0.95704767  0.72823431  0.74068319    -0.00500
H2803       H  0.48920296  0.71023797  0.64450662     0.14100
H2804       H  0.88023216  0.71356341  0.62690906     0.13900
C2805       C  0.98720684  0.86399707  0.78121078     0.85700
C2806       C  0.98635777  0.83562989  0.74781068    -0.54600
C2807       C  0.95228793  0.82004481  0.72701483     0.08600
C2808       C  0.92125701  0.83898432  0.74023944     0.19500
C2809       C  0.96051369  0.90232242  0.76420443    -0.55300
C2810       C  0.92632744  0.88968183  0.74186840     0.08700
C2811       C  0.96759125  0.83434393  0.80122113    -0.54800
C2812       C  0.93103461  0.82716514  0.78185637     0.09300
H2813       H  0.51085641  0.82860510  0.74310330     0.13800
H2814       H  0.89351604  0.82715641  0.72298677    -0.00500
H2815       H  0.96829509  0.93636633  0.76876771     0.14100
H2816       H  0.98046679  0.82332775  0.82983494     0.13900
C2817       C  0.86608837  0.94013678  0.65278226     0.85700
C2818       C  0.89676537  0.63781955  0.65726114    -0.54600
C2819       C  0.90778597  0.66122087  0.68981993     0.08600
C2820       C  0.89380078  0.97197312  0.71980534     0.19500
C2821       C  0.88220742  0.90449405  0.68061636    -0.55300
C2822       C  0.89905138  0.92009385  0.71605298     0.08700
C2823       C  0.83849108  0.96346942  0.66608809    -0.54800
C2824       C  0.85151918  0.97882637  0.70201935     0.09300
H2825       H  0.90609958  0.64476667  0.63416913     0.13800
H2826       H  0.90655422  0.98476481  0.74875875    -0.00500
H2827       H  0.88436390  0.87088491  0.67190351     0.14100
H2828       H  0.80990241  0.96338617  0.64827193     0.13900
C2829       C  0.76825806  0.95179350  0.72197782     0.85700
C2830       C  0.78835010  0.98092155  0.70226957    -0.54600
C2831       C  0.82487921  0.98804729  0.72212496     0.08600
C2832       C  0.83424372  0.97582384  0.76367542     0.19500
C2833       C  0.79452613  0.91306275  0.73911504    -0.55300
C2834       C  0.82869364  0.92505324  0.76199442     0.08700
C2835       C  0.76900375  0.98042197  0.75515228    -0.54800
C2836       C  0.80305548  0.99547218  0.77627825     0.09300
H2837       H  0.77552715  0.99201946  0.67368171     0.13800
H2838       H  0.86200292  0.98722435  0.78130097    -0.00500
H2839       H  0.78649684  0.87922093  0.73409158     0.14100
H2840       H  0.74440221  0.98925339  0.76027692     0.13900
C2841       C  0.89010590  0.87517370  0.85200947     0.85700
C2842       C  0.91816025  0.85425327  0.83793727    -0.54600
C2843       C  0.90483451  0.83785367  0.80223487     0.08600
C2844       C  0.86220917  0.84257759  0.78505382     0.19500
C2845       C  0.87158602  0.90998589  0.82410079    -0.55300
C2846       C  0.85514951  0.89417621  0.78871022     0.08700
C2847       C  0.86044405  0.84192044  0.84779015    -0.54800
C2848       C  0.84902020  0.81898953  0.81500627     0.09300
H2849       H  0.94692096  0.85605117  0.85509346     0.13800
H2850       H  0.84949223  0.82935747  0.75624164    -0.00500
H2851       H  0.86858214  0.94347178  0.83258790     0.14100
H2852       H  0.85183660  0.83427696  0.87115730     0.13900
O2853       O  0.85453166  0.85853533  0.55017738    -0.58600
C2854       C  0.84844617  0.92873886  0.61326470     0.74000
O2855       O  0.84248917  0.98872459  0.54338216    -0.59800
C2856       C  0.85121552  0.85343823  0.51633359     0.74000
C2857       C  0.73918361  0.90026437  0.53565035     0.76400
Cd2858     Cd  0.81296208  0.91656307  0.53881168     1.37500
O2859       O  0.84673551  0.88979933  0.60091677    -0.58600
O2860       O  0.76486834  0.87288600  0.54828527    -0.57400
C2861       C  0.85089734  0.98222793  0.51446545     0.76300
O2862       O  0.74529040  0.93313956  0.51800107    -0.59800
O2863       O  0.83360134  0.95962067  0.59068707    -0.58300
O2864       O  0.82800722  0.87778231  0.49238746    -0.58300
O2865       O  0.83600169  0.94910342  0.49457200    -0.57400
C2866       C  0.87094212  0.81813571  0.50298497    -0.03300
O2867       O  0.88363588  0.85251645  0.45200857    -0.58600
C2868       C  0.90712019  0.92386595  0.38805726     0.74000
O2869       O  0.92351033  0.96841241  0.50584021    -0.59800
C2870       C  0.89390499  0.84429716  0.48670504     0.74000
C2871       C  0.99813846  0.90017606  0.46476057     0.76400
Cd2872     Cd  0.92733790  0.91170601  0.46182695     1.37500
O2873       O  0.89803665  0.88836031  0.40000487    -0.58600
O2874       O  0.97559496  0.86879761  0.45398894    -0.57400
C2875       C  0.89449393  0.98659284  0.48402222     0.76300
O2876       O  0.98933661  0.93251590  0.48090090    -0.59800
O2877       O  0.92774378  0.95106402  0.41101578    -0.58300
O2878       O  0.92197255  0.86432526  0.50840327    -0.58300
O2879       O  0.88217525  0.97225118  0.45077894    -0.57400
C2880       C  0.87179519  0.68281314  0.49893721    -0.03300
C2881       C  0.78322024  0.75124665  0.45525112     0.85700
C2882       C  0.80542065  0.70912320  0.46686667    -0.54600
C2883       C  0.84113848  0.71053222  0.46758649     0.08600
C2884       C  0.84654984  0.75334897  0.44670001     0.19500
C2885       C  0.80739039  0.78668780  0.47746808    -0.55300
C2886       C  0.84123575  0.78979356  0.47395935     0.08700
C2887       C  0.78003490  0.76003877  0.41526478    -0.54800
C2888       C  0.81211670  0.75798742  0.40818385     0.09300
H2889       H  0.79408454  0.68277404  0.47854409     0.13800
H2890       H  0.87246364  0.75469947  0.44102617    -0.00500
H2891       H  0.79864924  0.80498331  0.49737035     0.14100
H2892       H  0.75344357  0.76577311  0.39387284     0.13900
C2893       C  0.80917796  0.75033781  0.36594060     0.85700
C2894       C  0.80765615  0.79125452  0.34164443    -0.54600
C2895       C  0.80380612  0.78212598  0.30503410     0.08600
C2896       C  0.79992651  0.73146901  0.29525440     0.19500
C2897       C  0.77363212  0.72438265  0.34361131    -0.55300
C2898       C  0.76807662  0.71504285  0.30687742     0.08700
C2899       C  0.83975739  0.72320576  0.36029308    -0.54800
C2900       C  0.83347296  0.70819224  0.32391818     0.09300
H2901       H  0.80908609  0.82462227  0.35230244     0.13800
H2902       H  0.79640813  0.72451073  0.26557588    -0.00500
H2903       H  0.75359195  0.71455146  0.35581411     0.14100
H2904       H  0.86279716  0.71306991  0.38452985     0.13900
C2905       C  0.93165674  0.73333100  0.09344794     0.85700
C2906       C  0.91128517  0.77451227  0.07050620    -0.54600
C2907       C  0.90415701  0.77282562  0.03241361     0.08600
C2908       C  0.92116892  0.73238245  0.02136355     0.19500
C2909       C  0.90783707  0.69464024  0.07190542    -0.55300
C2910       C  0.90199970  0.69435001  0.03373171     0.08700
C2911       C  0.96663172  0.72925180  0.08377717    -0.54800
C2912       C  0.96107239  0.73009030  0.04649356     0.09300
H2913       H  0.90168527  0.80130132  0.08295128     0.13800
H2914       H  0.91807178  0.73191004  0.99121197    -0.00500
H2915       H  0.89685554  0.00372052  0.08620674     0.14100
H2916       H  0.49318422  0.72661485  0.10578272     0.13900
C2917       C  0.93937933  0.73550500  0.13787405     0.85700
C2918       C  0.97448793  0.76229264  0.15999948    -0.54600
C2919       C  0.98093007  0.76703172  0.19743440     0.08600
C2920       C  0.95026470  0.74863050  0.20941323     0.19500
C2921       C  0.94393917  0.69264312  0.16064652    -0.55300
C2922       C  0.94783083  0.69872879  0.19805208     0.08700
C2923       C  0.90773556  0.75710241  0.14643631    -0.54800
C2924       C  0.91540924  0.77134259  0.18269480     0.09300
H2925       H  0.49196543  0.77675946  0.14788206     0.13800
H2926       H  0.95451412  0.75400068  0.23949746    -0.00500
H2927       H  0.94260693  0.99409847  0.14741969     0.14100
H2928       H  0.88252495  0.76610690  0.12412957     0.13900
C2929       C  0.76340528  0.86128483  0.22189064     0.85700
C2930       C  0.76454953  0.83310773  0.25550667    -0.54600
C2931       C  0.79881535  0.81809549  0.27630864     0.08600
C2932       C  0.82964141  0.83782442  0.26305566     0.19500
C2933       C  0.78930017  0.90017805  0.23816829    -0.55300
C2934       C  0.82337171  0.88881781  0.26100794     0.08700
C2935       C  0.78304153  0.83179937  0.20217659    -0.54800
C2936       C  0.81954529  0.82396532  0.22164453     0.09300
H2937       H  0.74017081  0.82456157  0.26121255     0.13800
H2938       H  0.85759861  0.82690400  0.28047385    -0.00500
H2939       H  0.78062500  0.93391355  0.23356269     0.14100
H2940       H  0.76903296  0.81933148  0.17427253     0.13900
C2941       C  0.88887753  0.93826279  0.34981573     0.85700
C2942       C  0.86162144  0.97251391  0.35055187    -0.54600
C2943       C  0.84687595  0.66189726  0.31901459     0.08600
C2944       C  0.85436772  0.97233529  0.28482200     0.19500
C2945       C  0.86685430  0.90434000  0.32280205    -0.55300
C2946       C  0.84794457  0.92066793  0.28834402     0.08700
C2947       C  0.91422679  0.95923760  0.33200129    -0.54800
C2948       C  0.89689618  0.97515483  0.29685949     0.09300
H2949       H  0.85728589  0.64496802  0.37678820     0.13800
H2950       H  0.83944868  0.98681299  0.25686316    -0.00500
H2951       H  0.86512932  0.87042044  0.33106969     0.14100
H2952       H  0.94367980  0.95662363  0.34440138     0.13900
C2953       C  0.94553662  0.99446739  0.22476126     0.85700
C2954       C  0.93102418  0.95007906  0.20585174    -0.54600
C2955       C  0.92449595  0.91814944  0.22874055     0.08600
C2956       C  0.94045704  0.93177744  0.27006172     0.19500
C2957       C  0.92004637  0.00555614  0.24717334    -0.55300
C2958       C  0.91793720  0.97297236  0.27111902     0.08700
C2959       C  0.98238046  0.98200967  0.25415106    -0.54800
C2960       C  0.98023772  0.94876901  0.27761478     0.09300
H2961       H  0.92135275  0.94621097  0.17573231     0.13800
H2962       H  0.93898436  0.90477596  0.28920951    -0.00500
H2963       H  0.90604891  0.70338102  0.24501074     0.14100
H2964       H  0.50802743  0.99728392  0.25608583     0.13900
C2965       C  0.85564980  0.86698692  0.14996604     0.85700
C2966       C  0.83157622  0.83732148  0.16310810    -0.54600
C2967       C  0.84606682  0.82557446  0.20023339     0.08600
C2968       C  0.88833527  0.83724649  0.21690568     0.19500
C2969       C  0.86694305  0.90318870  0.17873388    -0.55300
C2970       C  0.89043134  0.88932149  0.21290789     0.08700
C2971       C  0.89014700  0.84159251  0.15452518    -0.54800
C2972       C  0.90406262  0.81853055  0.18716855     0.09300
H2973       H  0.80349501  0.83247467  0.14491585     0.13800
H2974       H  0.90261598  0.82483128  0.24575521    -0.00500
H2975       H  0.86277670  0.93760511  0.17045961     0.14100
H2976       H  0.89957407  0.83753041  0.13115267     0.13900
loop_ 
_geom_bond_atom_site_label_1 
_geom_bond_atom_site_label_2 
_geom_bond_distance 
_geom_bond_site_symmetry_2 
_ccdc_geom_bond_type 
C1            C3   1.506       .  S
C1           C16   1.491       .  S
C1           C55   1.560       .  S
C1          C182   1.534       .  S
O2            C5   1.266       .  A
O2           Cd7   2.417       .  S
C3           O12   1.271       .  A
C3            O8   1.260       .  A
O4           C10   1.266       .  A
O4         Cd503   2.437       .  S
C5          C237   1.462       .  S
C5           O13   1.266       .  A
C6           O11   1.270       .  A
C6            O9   1.260   1_655  A
C6         C1796   1.475       .  S
Cd7          O14   2.397       .  S
Cd7          O13   2.268       .  S
Cd7          O12   2.361       .  S
Cd7           O8   2.328       .  S
Cd7          O11   2.520   1_455  S
Cd7           O9   2.430       .  S
Cd7         O996   2.445   1_545  S
C10          C28   1.527       .  S
C10         O510   1.273       .  A
O14        C1002   1.272       .  A
O15          C18   1.269       .  A
O15         Cd20   2.344       .  S
C16          O25   1.271       .  A
C16          O21   1.265       .  A
O17          C23   1.271       .  A
O17        Cd516   2.442       .  S
C18         C113   1.455       .  S
C18          O26   1.262       .  A
C19         C401   1.490       .  S
C19          O24   1.268       .  A
C19          O22   1.265       .  A
Cd20         O27   2.475       .  S
Cd20         O26   2.298       .  S
Cd20         O25   2.373       .  S
Cd20         O21   2.434       .  S
Cd20         O24   2.373       .  S
Cd20         O22   2.401       .  S
Cd20       O1009   2.435       .  S
C23          C28   1.508       .  S
C23         O523   1.263       .  A
O27        C1015   1.263   1_545  A
C28          C58   1.598       .  S
C28         C179   1.572       .  S
C29          C30   1.536       .  S
C29          C35   1.541       .  S
C29          C33   1.568       .  S
C29          C41   1.613       .  S
C30          C31   1.392       .  D
C30         H533   1.078       .  S
C31          C32   1.537       .  S
C31         C139   1.529       .  S
C32          C36   1.516       .  S
C32          C34   1.521       .  S
C32          H38   1.111   1_554  S
C33          C34   1.377       .  D
C33          H39   1.070       .  S
C34         C125   1.557       .  S
C35          C36   1.359       .  D
C35          H40   1.085       .  S
C36         C267   1.468       .  S
H37        C1022   1.077       .  S
C41          C42   1.541       .  S
C41          C47   1.535       .  S
C41          C45   1.551       .  S
C42          C43   1.378       .  D
C42          H49   1.085       .  S
C43          C44   1.577       .  S
C43          C79   1.506       .  S
C44          C48   1.550       .  S
C44          C46   1.532       .  S
C44          H50   1.110       .  S
C45          C46   1.367       .  D
C45          H51   1.078       .  S
C46         C449   1.531       .  S
C47          C48   1.385       .  D
C47          H52   1.085       .  S
C48          C91   1.535       .  S
C53        C1879   1.485   1_455  S
C53          C54   1.486       .  S
C53          C59   1.501       .  S
C53          C57   1.515       .  S
C54          C55   1.377       .  D
C54          H61   1.085       .  S
C55          C56   1.579       .  S
C56          C60   1.618       .  S
C56          C58   1.578       .  S
C56          H62   1.104       .  S
C57          C58   1.378       .  D
C57          H63   1.080       .  S
C59          C60   1.362       .  D
C59          H64   1.085       .  S
C60          C65   1.585       .  S
C65          C66   1.569       .  S
C65          C71   1.520       .  S
C65          C69   1.536       .  S
C66          C67   1.362       .  D
C66        H1561   1.077   1_455  S
C67          C68   1.525       .  S
C67        C1968   1.492   1_455  S
C68          C72   1.547       .  S
C68          C70   1.564       .  S
C68          H74   1.111       .  S
C69          C70   1.389       .  D
C69          H75   1.081       .  S
C70         C101   1.551       .  S
C71          C72   1.391       .  D
C71          H76   1.085       .  S
C72         C120   1.527       .  S
H73        C1554   1.077       .  S
C77          C83   1.534   1_545  S
C77          C81   1.534       .  S
C77         C418   1.541       .  S
C77        C1070   1.529       .  S
C78         C573   1.530       .  S
C78          C79   1.374       .  D
C78          H85   1.077       .  S
C79         C576   1.570       .  S
C80          C84   1.545   1_545  S
C80          C82   1.559       .  S
C80        C1071   1.572   1_545  S
C80        H1078   1.110   1_545  S
C81          C82   1.354       .  D
C81          H87   1.074       .  S
C82          C94   1.493       .  S
C83          C84   1.381       .  D
C83          H88   1.080       .  S
C84        C1107   1.531       .  S
H86         C576   1.110       .  S
C89         C143   1.470       .  S
C89          C90   1.497       .  S
C89          C95   1.525       .  S
C89          C93   1.504       .  S
C90          C91   1.357       .  D
C90          H97   1.077       .  S
C91          C92   1.573       .  S
C92          C96   1.546       .  S
C92          C94   1.596       .  S
C92          H98   1.110       .  S
C93          C94   1.361       .  D
C93          H99   1.086       .  S
C95          C96   1.364       .  D
C95         H100   1.083       .  S
C96         C106   1.475       .  S
C101        C102   1.542       .  S
C101        C107   1.529       .  S
C101        C105   1.553       .  S
C102        C103   1.387       .  D
C102        H109   1.081       .  S
C103        C104   1.536       .  S
C103        C118   1.534       .  S
C104        C108   1.556       .  S
C104        C106   1.529       .  S
C104        H110   1.111       .  S
C105        C106   1.368       .  D
C105        H111   1.086       .  S
C107        C108   1.368       .  D
C107       H1600   1.087   1_455  S
C108       C1927   1.487   1_455  S
H112       C1595   1.087       .  S
C113        C114   1.510       .  S
C113        C117   1.505       .  S
C113       C1111   1.510       .  S
C114       C1107   1.371   1_545  D
C114        H121   1.079   1_545  S
C115        C116   1.593       .  S
C115        C610   1.370       .  D
C115        C580   1.531       .  S
C116        C120   1.579       .  S
C116        C614   1.598       .  S
C116        H122   1.110       .  S
C117        C118   1.367       .  D
C117        H123   1.088       .  S
C118       C1108   1.599       .  S
C119        C609   1.510       .  S
C119        C120   1.356       .  D
C119        H124   1.088       .  S
C125        C134   1.519   1_554  S
C125        C144   1.522       .  S
C125        C158   1.562   1_554  S
O126        C129   1.256       .  A
O126       Cd131   2.342       .  S
C127        C213   1.469       .  S
C127        O136   1.268       .  A
C127        O132   1.264       .  A
O128        C134   1.277   1_554  A
O128       Cd131   2.487   1_554  S
C129       C1131   1.498   1_546  S
C129        O137   1.269   1_556  A
C130        O135   1.272       .  A
C130        O133   1.258       .  A
C130        C284   1.472       .  S
Cd131       O138   2.406       .  S
Cd131       O137   2.423   1_556  S
Cd131       O136   2.315       .  S
Cd131       O132   2.415       .  S
Cd131       O135   2.529       .  S
Cd131       O133   2.382       .  S
C134        O138   1.263       .  A
C139        C625   1.499   1_554  S
C139        C637   1.499       .  S
C139        C155   1.531   1_554  S
O140        C143   1.263       .  A
O140       Cd145   2.404       .  S
C141       C1131   1.501   1_545  S
C141        O150   1.271   1_554  A
C141        O146   1.256       .  A
O142        C148   1.271       .  A
O142       Cd145   2.482   1_655  S
C143        O151   1.267       .  A
C144        O149   1.275       .  A
C144        O147   1.265       .  A
Cd145       O152   2.372       .  S
Cd145       O151   2.347       .  S
Cd145       O150   2.435   1_554  S
Cd145       O146   2.338       .  S
Cd145       O149   2.482       .  S
Cd145       O147   2.425       .  S
C148        O152   1.259   1_655  A
C148       C1920   1.462       .  S
C153        C154   1.537       .  S
C153        C159   1.539       .  S
C153        C157   1.574       .  S
C153        C165   1.621       .  S
C154        C155   1.393       .  D
C154        H657   1.079       .  S
C155        C156   1.539       .  S
C156        C160   1.518       .  S
C156        C158   1.522       .  S
C156        H162   1.111   1_556  S
C157        C158   1.381       .  D
C157        H163   1.072       .  S
C159        C160   1.356       .  D
C159       H1652   1.085       .  S
C160       C1742   1.471       .  S
H161       C1146   1.079       .  S
H164       C1647   1.085       .  S
C165        C166   1.545       .  S
C165        C171   1.534       .  S
C165        C169   1.558       .  S
C166        C167   1.381       .  D
C166        H173   1.085       .  S
C167        C168   1.573       .  S
C167        C203   1.507       .  S
C168        C172   1.553       .  S
C168        C170   1.533       .  S
C168        H174   1.110       .  S
C169        C170   1.367       .  D
C169       H1663   1.076       .  S
C170       C1813   1.541   1_455  S
C171        C172   1.385       .  D
C171        H176   1.085       .  S
C172        C215   1.531       .  S
H175       C1657   1.075       .  S
C177        C178   1.577       .  S
C177        C183   1.530       .  S
C177        C181   1.534       .  S
C177        C189   1.631       .  S
C178        C179   1.394       .  D
C178        H185   1.070       .  S
C179        C180   1.516       .  S
C180        C184   1.530       .  S
C180        C182   1.530       .  S
C180        H186   1.099       .  S
C181        C182   1.399       .  D
C181        H187   1.074       .  S
C183        C184   1.353       .  D
C183        H188   1.085       .  S
C184        C377   1.472       .  S
C189        C190   1.560       .  S
C189        C195   1.531       .  S
C189        C193   1.552       .  S
C190        C191   1.370       .  D
C190        H197   1.077       .  S
C191        C192   1.532       .  S
C191        C349   1.540       .  S
C192        C196   1.553       .  S
C192        C194   1.570       .  S
C192        H198   1.110       .  S
C193        C194   1.385       .  D
C193        H199   1.085       .  S
C194        C232   1.515       .  S
C195        C196   1.384       .  D
C195        H200   1.086       .  S
C196        C244   1.531       .  S
C201        C202   1.525       .  S
C201        C207   1.537       .  S
C201        C205   1.546       .  S
C201       C1806   1.538   1_455  S
C202       C1195   1.367   1_545  D
C202       H2689   1.076   1_445  S
C203        C700   1.569       .  S
C203        C698   1.368       .  D
C204        C208   1.538   1_545  S
C204        C206   1.551       .  S
C204       C1195   1.569   1_545  S
C204        H210   1.110   1_545  S
C205        C206   1.361       .  D
C205        H211   1.072       .  S
C206        C218   1.494       .  S
C207        C208   1.374   1_545  D
C207        H212   1.081   1_545  S
C208        C239   1.514   1_565  S
H209       C2186   1.076       .  S
C213        C214   1.500       .  S
C213        C219   1.516       .  S
C213        C217   1.495       .  S
C214        C215   1.363       .  D
C214        H221   1.080       .  S
C215        C216   1.573       .  S
C216        C220   1.561       .  S
C216        C218   1.601       .  S
C216        H222   1.109       .  S
C217        C218   1.363       .  D
C217        H223   1.086       .  S
C219        C220   1.368       .  D
C219        H224   1.083       .  S
C220        C227   1.516       .  S
C225        C226   1.541       .  S
C225        C231   1.528       .  S
C225        C229   1.544       .  S
C225        C291   1.543       .  S
C226        C227   1.373       .  D
C226        H233   1.080       .  S
C227        C228   1.538       .  S
C228        C232   1.571       .  S
C228        C230   1.551       .  S
C228        H234   1.109       .  S
C229        C230   1.360       .  D
C229        H235   1.073       .  S
C230        C242   1.490       .  S
C231        C232   1.370       .  D
C231        H236   1.074       .  S
C237        C238   1.512       .  S
C237        C241   1.491       .  S
C237       C1235   1.502       .  S
C238        C239   1.365       .  D
C238        H245   1.083       .  S
C239        C240   1.561       .  S
C240        C242   1.602       .  S
C240       C1236   1.575   1_545  S
C240       H1238   1.109   1_545  S
C241        C242   1.362       .  D
C241        H247   1.086       .  S
C243        C733   1.502       .  S
C243        C244   1.364       .  D
C243        H248   1.080       .  S
C244        C736   1.573       .  S
H246        C736   1.109       .  S
C249        C258   1.518   1_554  S
C249        C271   1.522       .  S
C249        C279   1.561   1_554  S
C249        C427   1.556       .  S
O250        C253   1.263       .  A
O250       Cd255   2.413       .  S
C251        C276   1.501   1_556  S
C251        O260   1.270   1_556  A
C251        O256   1.256       .  A
O252        C258   1.277   1_554  A
O252       Cd255   2.467   1_554  S
C253        C361   1.469       .  S
C253        O261   1.267       .  A
C254        O259   1.272       .  A
C254        O257   1.259       .  A
C254       C1648   1.471       .  S
Cd255       O262   2.417       .  S
Cd255       O261   2.316       .  S
Cd255       O260   2.432   1_556  S
Cd255       O256   2.335       .  S
Cd255       O259   2.517       .  S
Cd255       O257   2.387       .  S
C258        O262   1.264       .  A
O263        C266   1.265       .  A
O263       Cd268   2.393       .  S
C264        C276   1.506       .  S
C264        O273   1.271   1_554  A
C264        O269   1.258       .  A
O265        C271   1.278       .  A
O265       Cd268   2.485       .  S
C266        C485   1.469       .  S
C266        O274   1.266       .  A
C267        O272   1.273       .  A
C267        O270   1.259       .  A
Cd268       O275   2.415       .  S
Cd268       O274   2.343       .  S
Cd268       O273   2.437   1_554  S
Cd268       O269   2.366       .  S
Cd268       O272   2.498       .  S
Cd268       O270   2.387       .  S
C271        O275   1.265       .  A
C276        C778   1.538   1_554  S
C276        C926   1.533       .  S
C277        C278   1.571       .  S
C277        C283   1.538       .  S
C277        C281   1.538       .  S
C277        C289   1.621       .  S
C278        C279   1.379       .  D
C278        H285   1.071       .  S
C279        C280   1.524       .  S
C280        C284   1.522       .  S
C280        C282   1.540       .  S
C280        H286   1.111   1_556  S
C281        C282   1.396       .  D
C281       H1279   1.078       .  S
C282       C1268   1.538   1_546  S
C283        C284   1.356       .  D
C283        H288   1.085       .  S
H287        C777   1.078       .  S
C289        C290   1.557       .  S
C289        C295   1.534       .  S
C289        C293   1.543       .  S
C290        C291   1.366       .  D
C290        H297   1.076       .  S
C291        C292   1.535       .  S
C292        C296   1.553       .  S
C292        C294   1.573       .  S
C292        H298   1.110       .  S
C293        C294   1.381       .  D
C293       H1291   1.085   1_545  S
C294       C1348   1.505   1_545  S
C295        C296   1.386       .  D
C295        H300   1.086       .  S
C296        C368   1.532       .  S
H299        C789   1.085       .  S
C301        C302   1.532       .  S
C301        C307   1.532       .  S
C301        C305   1.577       .  S
C301        C313   1.622       .  S
C302        C303   1.395       .  D
C302        H309   1.074       .  S
C303        C304   1.531       .  S
C303        C386   1.529       .  S
C304        C308   1.528       .  S
C304        C306   1.516       .  S
C304        H310   1.097       .  S
C305        C306   1.394       .  D
C305        H311   1.073       .  S
C306        C400   1.573       .  S
C307        C308   1.352       .  D
C307       H1800   1.085       .  S
C308       C1494   1.474       .  S
H312       C1795   1.085       .  S
C313        C314   1.550       .  S
C313        C319   1.530       .  S
C313        C317   1.558       .  S
C314        C315   1.382       .  D
C314        H321   1.085       .  S
C315        C316   1.570       .  S
C315        C327   1.513       .  S
C316        C320   1.552       .  S
C316        C318   1.532       .  S
C316        H322   1.110       .  S
C317        C318   1.370       .  D
C317       H1811   1.078       .  S
C318       C1689   1.538       .  S
C319        C320   1.385       .  D
C319        H324   1.086       .  S
C320        C339   1.532   1_545  S
H323       C1805   1.077       .  S
C325        C326   1.528       .  S
C325        C331   1.541       .  S
C325        C329   1.545       .  S
C325       C1658   1.541       .  S
C326        C327   1.371       .  D
C326       H1821   1.075       .  S
C327        C328   1.572       .  S
C328        C332   1.538       .  S
C328        C330   1.551       .  S
C328        H334   1.109       .  S
C329        C330   1.361       .  D
C329        H335   1.073       .  S
C330        C342   1.491       .  S
C331        C332   1.372       .  D
C331        H336   1.081       .  S
C332        C363   1.517       .  S
H333       C1814   1.075   1_455  S
C337        C374   1.461       .  S
C337        C343   1.512       .  S
C337        C341   1.491       .  S
C337        C834   1.501       .  S
C338       C1329   1.502       .  S
C338        C339   1.363       .  D
C338        H345   1.081       .  S
C339       C1332   1.575       .  S
C340        C344   1.561       .  S
C340        C342   1.603       .  S
C340        C835   1.575       .  S
C340        H346   1.109       .  S
C341        C342   1.363       .  D
C341        H347   1.086       .  S
C343        C344   1.365       .  D
C343        H348   1.083       .  S
C344        C351   1.513       .  S
C349        C350   1.536       .  S
C349        C355   1.526       .  S
C349        C353   1.548       .  S
C350        C351   1.374       .  D
C350        H357   1.081       .  S
C351        C352   1.538       .  S
C352        C356   1.568       .  S
C352        C354   1.553       .  S
C352        H358   1.110       .  S
C353        C354   1.362       .  D
C353        H359   1.072       .  S
C354        C366   1.498       .  S
C355        C356   1.367       .  D
C355        H360   1.076       .  S
C356        C790   1.504       .  S
C361        C362   1.514       .  S
C361        C367   1.498       .  S
C361        C365   1.496       .  S
C362        C363   1.369       .  D
C362        H369   1.083       .  S
C363        C364   1.563       .  S
C364        C368   1.575       .  S
C364        C366   1.603       .  S
C364        H370   1.109       .  S
C365        C366   1.363       .  D
C365        H371   1.086       .  S
C367        C368   1.361       .  D
C367        H372   1.079       .  S
O373        C376   1.259       .  A
O373       Cd378   2.334       .  S
C374        O383   1.267       .  A
C374        O379   1.266       .  A
O375        C381   1.267       .  A
O375       Cd378   2.453       .  S
C376        C386   1.506       .  S
C376        O384   1.272       .  A
C377        O382   1.270       .  A
C377        O380   1.260       .  A
Cd378       O385   2.388       .  S
Cd378       O384   2.357       .  S
Cd378       O383   2.271       .  S
Cd378       O379   2.411       .  S
Cd378       O382   2.519       .  S
Cd378       O380   2.413       .  S
C381        C896   1.527       .  S
C381        O385   1.272       .  A
C386        C390   1.483       .  S
C386        C406   1.550       .  S
O387        C390   1.264       .  A
O387       Cd392   2.408       .  S
C388        C461   1.446       .  S
C388        O397   1.265       .  A
C388        O393   1.267       .  A
O389        C395   1.271       .  A
O389       Cd392   2.439       .  S
C390        O398   1.271       .  A
C391       C1541   1.485       .  S
C391        O396   1.268       .  A
C391        O394   1.263       .  A
Cd392       O399   2.473       .  S
Cd392       O398   2.360       .  S
Cd392       O397   2.272       .  S
Cd392       O393   2.345       .  S
Cd392       O396   2.361       .  S
Cd392       O394   2.386       .  S
C395        C896   1.507       .  S
C395        O399   1.263       .  A
C400       C1373   1.523   1_545  S
C400       C1387   1.505   1_545  S
C400        C403   1.600       .  S
C401        C402   1.520       .  S
C401        C407   1.507       .  S
C401        C405   1.487       .  S
C402        C403   1.380       .  D
C402        H409   1.080       .  S
C403        C404   1.575       .  S
C404        C408   1.613       .  S
C404        C406   1.578       .  S
C404        H410   1.103       .  S
C405        C406   1.373       .  D
C405        H411   1.086       .  S
C407        C408   1.367       .  D
C407        H412   1.085       .  S
C408        C413   1.593       .  S
C413        C414   1.540       .  S
C413        C419   1.525       .  S
C413        C417   1.562       .  S
C414        C415   1.379       .  D
C414        H421   1.086       .  S
C415        C416   1.575       .  S
C415        C451   1.511       .  S
C416        C420   1.548       .  S
C416        C418   1.534       .  S
C416        H422   1.110       .  S
C417        C418   1.369       .  D
C417        H423   1.079       .  S
C419        C420   1.397       .  D
C419        H424   1.084       .  S
C420        C463   1.534   1_545  S
C425        C426   1.573       .  S
C425        C431   1.533       .  S
C425        C429   1.543       .  S
C425        C437   1.612       .  S
C426        C427   1.379       .  D
C426        H433   1.072       .  S
C427        C428   1.522       .  S
C428        C432   1.516       .  S
C428        C430   1.534       .  S
C428        H434   1.111   1_554  S
C429        C430   1.390       .  D
C429       H1427   1.078       .  S
C430       C1268   1.532   1_545  S
C431        C432   1.358       .  D
C431       H1924   1.085       .  S
C432       C1636   1.462       .  S
H435        C925   1.078       .  S
H436       C1919   1.085       .  S
C437        C438   1.562       .  S
C437        C443   1.527       .  S
C437        C441   1.539       .  S
C438        C439   1.365       .  D
C438       H1933   1.080       .  S
C439        C440   1.524       .  S
C439       C1596   1.488       .  S
C440        C444   1.547       .  S
C440        C442   1.569       .  S
C440        H446   1.111       .  S
C441        C442   1.390       .  D
C441       H1439   1.081   1_545  S
C442       C1465   1.545   1_545  S
C443        C444   1.376       .  D
C443        H448   1.085       .  S
C444        C492   1.527       .  S
H445       C1926   1.080       .  S
H447        C937   1.081       .  S
C449        C450   1.528       .  S
C449        C455   1.534       .  S
C449        C453   1.535       .  S
C450        C451   1.371       .  D
C450        H457   1.075       .  S
C451        C452   1.572       .  S
C452        C456   1.543       .  S
C452        C454   1.564       .  S
C452        H458   1.109       .  S
C453        C454   1.353       .  D
C453        H459   1.075       .  S
C454        C466   1.494       .  S
C455        C456   1.375       .  D
C455        H460   1.080       .  S
C456        C487   1.523       .  S
C461        C462   1.493       .  S
C461        C467   1.518       .  S
C461        C465   1.494       .  S
C462        C959   1.351       .  D
C462        H965   1.085       .  S
C463       C1456   1.589       .  S
C463       C1454   1.352       .  D
C464        C468   1.558       .  S
C464        C466   1.601       .  S
C464        C959   1.591       .  S
C464        H470   1.110       .  S
C465        C466   1.354       .  D
C465        H471   1.085       .  S
C467        C468   1.360       .  D
C467        H472   1.080       .  S
C468        C478   1.483       .  S
H469       C1454   1.085       .  S
C473        C474   1.540       .  S
C473        C479   1.526       .  S
C473        C477   1.555       .  S
C473        C938   1.547       .  S
C474        C475   1.385       .  D
C474        H481   1.081       .  S
C475        C476   1.530       .  S
C475        C490   1.524       .  S
C476        C480   1.558       .  S
C476        C478   1.536       .  S
C476        H482   1.111       .  S
C477        C478   1.367       .  D
C477        H979   1.086       .  S
C479        C480   1.368       .  D
C479       H1972   1.086       .  S
C480       C1555   1.490       .  S
H483       C1469   1.086       .  S
H484       C1967   1.087   1_455  S
C485        C486   1.504       .  S
C485        C491   1.507       .  S
C485        C489   1.504       .  S
C486        C487   1.373       .  D
C486        H493   1.081       .  S
C487        C488   1.583       .  S
C488        C492   1.568       .  S
C488        C490   1.593       .  S
C488        H494   1.110       .  S
C489        C490   1.369       .  D
C489        H495   1.087       .  S
C491        C492   1.363       .  D
C491        H496   1.081       .  S
C497        C499   1.507       .  S
C497        C512   1.491       .  S
C497        C551   1.559       .  S
C497        C678   1.534       .  S
O498        C501   1.266       .  A
O498       Cd503   2.421       .  S
C499        O508   1.271       .  A
C499        O504   1.260       .  A
O500        C506   1.267       .  A
O500       Cd999   2.446       .  S
C501        C733   1.463       .  S
C501        O509   1.266       .  A
C502        O507   1.270       .  A
C502        O505   1.260   1_655  A
C502       C2292   1.474       .  S
Cd503       O510   2.400       .  S
Cd503       O509   2.270       .  S
Cd503       O508   2.366       .  S
Cd503       O504   2.325       .  S
Cd503       O507   2.514   1_455  S
Cd503       O505   2.437       .  S
C506        C524   1.528       .  S
C506       O1006   1.272       .  A
O511        C514   1.269       .  A
O511       Cd516   2.341       .  S
C512        O521   1.270       .  A
C512        O517   1.266       .  A
O513        C519   1.271       .  A
O513      Cd1012   2.436       .  S
C514        C609   1.454       .  S
C514        O522   1.262       .  A
C515        C897   1.491       .  S
C515        O520   1.268       .  A
C515        O518   1.265       .  A
Cd516       O523   2.484       .  S
Cd516       O522   2.297       .  S
Cd516       O521   2.365       .  S
Cd516       O517   2.439       .  S
Cd516       O520   2.372       .  S
Cd516       O518   2.413       .  S
C519        C524   1.506       .  S
C519       O1019   1.263       .  A
C524        C554   1.599       .  S
C524        C675   1.571       .  S
C525        C526   1.535       .  S
C525        C531   1.541       .  S
C525        C529   1.569       .  S
C525        C537   1.615       .  S
C526        C527   1.392       .  D
C526       H1029   1.077       .  S
C527        C528   1.538       .  S
C527        C635   1.532       .  S
C528        C532   1.518       .  S
C528        C530   1.523       .  S
C528        H534   1.111   1_554  S
C529        C530   1.378       .  D
C529        H535   1.069       .  S
C530        C621   1.559       .  S
C531        C532   1.359       .  D
C531        H536   1.085       .  S
C532        C763   1.471       .  S
C537        C538   1.543       .  S
C537        C543   1.533       .  S
C537        C541   1.551       .  S
C538        C539   1.380       .  D
C538        H545   1.085       .  S
C539        C540   1.577       .  S
C539        C575   1.508       .  S
C540        C544   1.549       .  S
C540        C542   1.532       .  S
C540        H546   1.110       .  S
C541        C542   1.368       .  D
C541        H547   1.078       .  S
C542        C945   1.532       .  S
C543        C544   1.385       .  D
C543        H548   1.085       .  S
C544        C587   1.533       .  S
C549       C2375   1.485   1_455  S
C549        C550   1.487       .  S
C549        C555   1.503       .  S
C549        C553   1.514       .  S
C550        C551   1.376       .  D
C550        H557   1.085       .  S
C551        C552   1.578       .  S
C552        C556   1.619       .  S
C552        C554   1.580       .  S
C552        H558   1.104       .  S
C553        C554   1.377       .  D
C553        H559   1.080       .  S
C555        C556   1.363       .  D
C555        H560   1.084       .  S
C556        C561   1.588       .  S
C561        C562   1.570       .  S
C561        C567   1.520       .  S
C561        C565   1.536       .  S
C562        C563   1.364       .  D
C562       H2057   1.076   1_455  S
C563        C564   1.524       .  S
C563       C2464   1.494   1_455  S
C564        C568   1.547       .  S
C564        C566   1.566       .  S
C564        H570   1.111       .  S
C565        C566   1.389       .  D
C565        H571   1.081       .  S
C566        C597   1.551       .  S
C567        C568   1.391       .  D
C567        H572   1.085       .  S
C568        C616   1.529       .  S
H569       C2050   1.077       .  S
C573        C579   1.534       .  S
C573        C577   1.533       .  S
C573        C914   1.542       .  S
C574       C1069   1.529       .  S
C574        C575   1.373       .  D
C574        H581   1.077       .  S
C575       C1072   1.573       .  S
C576        C580   1.545       .  S
C576        C578   1.558       .  S
C577        C578   1.354       .  D
C577        H583   1.074       .  S
C578        C590   1.492       .  S
C579        C580   1.381       .  D
C579        H584   1.079       .  S
H582       C1072   1.110       .  S
C585        C639   1.470       .  S
C585        C586   1.496       .  S
C585        C591   1.524       .  S
C585        C589   1.505       .  S
C586        C587   1.357       .  D
C586        H593   1.076       .  S
C587        C588   1.572       .  S
C588        C592   1.545       .  S
C588        C590   1.594       .  S
C588        H594   1.110       .  S
C589        C590   1.362       .  D
C589        H595   1.086       .  S
C591        C592   1.364       .  D
C591        H596   1.083       .  S
C592        C602   1.474       .  S
C597        C598   1.542       .  S
C597        C603   1.530       .  S
C597        C601   1.552       .  S
C598        C599   1.388       .  D
C598        H605   1.081       .  S
C599        C600   1.535       .  S
C599        C614   1.534       .  S
C600        C604   1.555       .  S
C600        C602   1.530       .  S
C600        H606   1.111       .  S
C601        C602   1.367       .  D
C601        H607   1.086       .  S
C603        C604   1.369       .  D
C603       H2096   1.087   1_455  S
C604       C2423   1.487   1_455  S
H608       C2091   1.087       .  S
C609        C610   1.510       .  S
C609        C613   1.505       .  S
C610        H617   1.079       .  S
C611        C612   1.592       .  S
C611       C1106   1.371       .  D
C611       C1076   1.532       .  S
C612        C616   1.580       .  S
C612       C1110   1.600       .  S
C612        H618   1.110       .  S
C613        C614   1.366       .  D
C613        H619   1.088       .  S
C615       C1105   1.510       .  S
C615        C616   1.357       .  D
C615        H620   1.088       .  S
C621        C630   1.519   1_554  S
C621        C640   1.523       .  S
C621        C654   1.561   1_554  S
O622        C625   1.257       .  A
O622       Cd627   2.343       .  S
C623        C709   1.469       .  S
C623        O632   1.267       .  A
C623        O628   1.264       .  A
O624        C630   1.277   1_554  A
O624       Cd627   2.482   1_554  S
C625        O633   1.269   1_556  A
C626        O631   1.272       .  A
C626        O629   1.258       .  A
C626        C780   1.471       .  S
Cd627       O634   2.413       .  S
Cd627       O633   2.428   1_556  S
Cd627       O632   2.315       .  S
Cd627       O628   2.416       .  S
Cd627       O631   2.523       .  S
Cd627       O629   2.383       .  S
C630        O634   1.264       .  A
C635       C1121   1.499   1_554  S
C635       C1133   1.503       .  S
C635        C651   1.534   1_554  S
O636        C639   1.263       .  A
O636       Cd641   2.403       .  S
C637        O646   1.271   1_554  A
C637        O642   1.257       .  A
O638        C644   1.271       .  A
O638       Cd641   2.476   1_655  S
C639        O647   1.267       .  A
C640        O645   1.276   1_554  A
C640        O643   1.265       .  A
Cd641       O648   2.377       .  S
Cd641       O647   2.346       .  S
Cd641       O646   2.426   1_554  S
Cd641       O642   2.338       .  S
Cd641       O645   2.486   1_554  S
Cd641       O643   2.422       .  S
C644        O648   1.259   1_655  A
C644       C2416   1.461       .  S
C649        C650   1.538       .  S
C649        C655   1.539       .  S
C649        C653   1.574       .  S
C649        C661   1.622       .  S
C650        C651   1.394       .  D
C650       H1153   1.079       .  S
C651        C652   1.538       .  S
C652        C656   1.518       .  S
C652        C654   1.523       .  S
C652        H658   1.111   1_556  S
C653        C654   1.380       .  D
C653        H659   1.072       .  S
C655        C656   1.355       .  D
C655       H2148   1.085       .  S
C656       C2238   1.468       .  S
H660       C2143   1.085       .  S
C661        C662   1.545       .  S
C661        C667   1.534       .  S
C661        C665   1.557       .  S
C662        C663   1.382       .  D
C662        H669   1.085       .  S
C663        C664   1.573       .  S
C663        C699   1.507       .  S
C664        C668   1.554       .  S
C664        C666   1.533       .  S
C664        H670   1.110       .  S
C665        C666   1.366       .  D
C665       H2159   1.076       .  S
C666       C2309   1.541   1_455  S
C667        C668   1.384       .  D
C667        H672   1.085       .  S
C668        C711   1.532       .  S
H671       C2153   1.076       .  S
C673        C674   1.577       .  S
C673        C679   1.531       .  S
C673        C677   1.534       .  S
C673        C685   1.630       .  S
C674        C675   1.393       .  D
C674        H681   1.070       .  S
C675        C676   1.516       .  S
C676        C680   1.530       .  S
C676        C678   1.530       .  S
C676        H682   1.099       .  S
C677        C678   1.399       .  D
C677        H683   1.074       .  S
C679        C680   1.353       .  D
C679        H684   1.085       .  S
C680        C873   1.473       .  S
C685        C686   1.560       .  S
C685        C691   1.532       .  S
C685        C689   1.551       .  S
C686        C687   1.370       .  D
C686        H693   1.077       .  S
C687        C688   1.531       .  S
C687        C845   1.541       .  S
C688        C692   1.553       .  S
C688        C690   1.569       .  S
C688        H694   1.110       .  S
C689        C690   1.384       .  D
C689        H695   1.085       .  S
C690        C728   1.512       .  S
C691        C692   1.384       .  D
C691        H696   1.086       .  S
C692        C740   1.532       .  S
C697        C698   1.527       .  S
C697        C703   1.537       .  S
C697        C701   1.548       .  S
C697       C2302   1.542   1_455  S
C698       H1697   1.076   1_455  S
C699       C1196   1.570       .  S
C699       C1194   1.368       .  D
C700        C704   1.538       .  S
C700        C702   1.551       .  S
C700        H706   1.110       .  S
C701        C702   1.362       .  D
C701        H707   1.073       .  S
C702        C714   1.495       .  S
C703        C704   1.374       .  D
C703        H708   1.081       .  S
C704        C735   1.513       .  S
H705       C2682   1.076       .  S
C709        C710   1.501       .  S
C709        C715   1.516       .  S
C709        C713   1.496       .  S
C710        C711   1.363       .  D
C710        H717   1.080       .  S
C711        C712   1.573       .  S
C712        C716   1.562       .  S
C712        C714   1.601       .  S
C712        H718   1.109       .  S
C713        C714   1.363       .  D
C713        H719   1.086       .  S
C715        C716   1.368       .  D
C715        H720   1.083       .  S
C716        C723   1.516       .  S
C721        C722   1.542       .  S
C721        C727   1.528       .  S
C721        C725   1.545       .  S
C721        C787   1.544       .  S
C722        C723   1.372       .  D
C722        H729   1.080       .  S
C723        C724   1.537       .  S
C724        C728   1.570       .  S
C724        C726   1.550       .  S
C724        H730   1.109       .  S
C725        C726   1.361       .  D
C725        H731   1.073       .  S
C726        C738   1.490       .  S
C727        C728   1.370       .  D
C727        H732   1.074       .  S
C733        C734   1.512       .  S
C733        C737   1.491       .  S
C734        C735   1.365       .  D
C734        H741   1.083       .  S
C735        C736   1.561       .  S
C736        C738   1.601       .  S
C737        C738   1.363       .  D
C737        H743   1.086       .  S
C739       C1229   1.502       .  S
C739        C740   1.364       .  D
C739        H744   1.080       .  S
C740       C1232   1.574       .  S
H742       C1232   1.109       .  S
C745        C754   1.519   1_554  S
C745        C767   1.523       .  S
C745        C775   1.559   1_554  S
C745        C923   1.555       .  S
O746        C749   1.263       .  A
O746       Cd751   2.420       .  S
C747        C772   1.503   1_556  S
C747        O756   1.271   1_556  A
C747        O752   1.256       .  A
O748        C754   1.277   1_554  A
O748       Cd751   2.473   1_554  S
C749        C857   1.471       .  S
C749        O757   1.268       .  A
C750        O755   1.271       .  A
C750        O753   1.259       .  A
C750       C2144   1.470       .  S
Cd751       O758   2.415       .  S
Cd751       O757   2.319       .  S
Cd751       O756   2.443   1_556  S
Cd751       O752   2.331       .  S
Cd751       O755   2.513       .  S
Cd751       O753   2.393       .  S
C754        O758   1.263       .  A
O759        C762   1.265       .  A
O759       Cd764   2.385       .  S
C760        C772   1.506       .  S
C760        O769   1.271   1_554  A
C760        O765   1.258       .  A
O761        C767   1.277       .  A
O761       Cd764   2.486       .  S
C762        C981   1.470       .  S
C762        O770   1.267       .  A
C763        O768   1.273       .  A
C763        O766   1.260       .  A
Cd764       O771   2.422       .  S
Cd764       O770   2.348       .  S
Cd764       O769   2.435   1_554  S
Cd764       O765   2.369       .  S
Cd764       O768   2.504       .  S
Cd764       O766   2.392       .  S
C767        O771   1.265       .  A
C772       C1274   1.539   1_554  S
C772       C1422   1.533       .  S
C773        C774   1.570       .  S
C773        C779   1.538       .  S
C773        C777   1.537       .  S
C773        C785   1.617       .  S
C774        C775   1.378       .  D
C774        H781   1.070       .  S
C775        C776   1.525       .  S
C776        C780   1.521       .  S
C776        C778   1.540       .  S
C776        H782   1.111   1_556  S
C777        C778   1.395       .  D
C779        C780   1.356       .  D
C779        H784   1.085       .  S
H783       C1273   1.078       .  S
C785        C786   1.557       .  S
C785        C791   1.534       .  S
C785        C789   1.541       .  S
C786        C787   1.366       .  D
C786        H793   1.076       .  S
C787        C788   1.535       .  S
C788        C792   1.555       .  S
C788        C790   1.575       .  S
C788        H794   1.110       .  S
C789        C790   1.379       .  D
C791        C792   1.385       .  D
C791        H796   1.085       .  S
C792        C864   1.533       .  S
H795       C1285   1.085       .  S
C797        C798   1.530       .  S
C797        C803   1.533       .  S
C797        C801   1.576       .  S
C797        C809   1.621       .  S
C798        C799   1.394       .  D
C798        H805   1.074       .  S
C799        C800   1.532       .  S
C799        C882   1.527       .  S
C800        C804   1.527       .  S
C800        C802   1.518       .  S
C800        H806   1.096       .  S
C801        C802   1.394       .  D
C801        H807   1.071       .  S
C802        C896   1.575       .  S
C803        C804   1.352       .  D
C803       H2296   1.085       .  S
C804       C1990   1.475       .  S
H808       C2291   1.085       .  S
C809        C810   1.549       .  S
C809        C815   1.530       .  S
C809        C813   1.557       .  S
C810        C811   1.382       .  D
C810        H817   1.085       .  S
C811        C812   1.571       .  S
C811        C823   1.511       .  S
C812        C816   1.553       .  S
C812        C814   1.532       .  S
C812        H818   1.110       .  S
C813        C814   1.370       .  D
C813       H2307   1.077       .  S
C814       C2185   1.539       .  S
C815        C816   1.385       .  D
C815        H820   1.086       .  S
C816        C835   1.533       .  S
H819       C2301   1.078       .  S
C821       C2154   1.541       .  S
C821        C822   1.528       .  S
C821        C827   1.540       .  S
C821        C825   1.546       .  S
C822        C823   1.371       .  D
C822       H2317   1.075       .  S
C823        C824   1.570       .  S
C824        C828   1.537       .  S
C824        C826   1.550       .  S
C824        H830   1.109       .  S
C825        C826   1.361       .  D
C825        H831   1.073       .  S
C826        C838   1.491       .  S
C827        C828   1.371       .  D
C827        H832   1.081       .  S
C828        C859   1.514       .  S
H829       C2310   1.075   1_455  S
C833        C870   1.461       .  S
C833       C1330   1.501       .  S
C833        C839   1.512       .  S
C833        C837   1.492       .  S
C834        C835   1.363       .  D
C834        H841   1.080       .  S
C836       C1331   1.575       .  S
C836        C840   1.560       .  S
C836        C838   1.601       .  S
C836        H842   1.109       .  S
C837        C838   1.364       .  D
C837        H843   1.085       .  S
C839        C840   1.365       .  D
C839        H844   1.082       .  S
C840        C847   1.513       .  S
C845        C846   1.536       .  S
C845        C851   1.526       .  S
C845        C849   1.548       .  S
C846        C847   1.373       .  D
C846        H853   1.081       .  S
C847        C848   1.539       .  S
C848        C852   1.568       .  S
C848        C850   1.552       .  S
C848        H854   1.110       .  S
C849        C850   1.362       .  D
C849        H855   1.072       .  S
C850        C862   1.498       .  S
C851        C852   1.368       .  D
C851        H856   1.076       .  S
C852       C1286   1.504       .  S
C857        C858   1.512       .  S
C857        C863   1.499       .  S
C857        C861   1.497       .  S
C858        C859   1.369       .  D
C858        H865   1.083       .  S
C859        C860   1.562       .  S
C860        C864   1.573       .  S
C860        C862   1.603       .  S
C860        H866   1.109       .  S
C861        C862   1.364       .  D
C861        H867   1.086       .  S
C863        C864   1.363       .  D
C863        H868   1.078       .  S
O869        C872   1.259       .  A
O869       Cd874   2.335       .  S
C870        O879   1.267       .  A
C870        O875   1.266       .  A
O871        C877   1.268       .  A
O871       Cd874   2.453       .  S
C872        C882   1.507       .  S
C872        O880   1.273       .  A
C873        O878   1.270       .  A
C873        O876   1.260       .  A
Cd874       O881   2.384       .  S
Cd874       O880   2.355       .  S
Cd874       O879   2.266       .  S
Cd874       O875   2.412       .  S
Cd874       O878   2.519       .  S
Cd874       O876   2.416       .  S
C877       C1392   1.525       .  S
C877        O881   1.271       .  A
C882        C886   1.483       .  S
C882        C902   1.551       .  S
O883        C886   1.263       .  A
O883       Cd888   2.414       .  S
C884        C957   1.447       .  S
C884        O893   1.265       .  A
C884        O889   1.266       .  A
O885        C891   1.271       .  A
O885       Cd888   2.446       .  S
C886        O894   1.271       .  A
C887       C2037   1.483       .  S
C887        O892   1.268       .  A
C887        O890   1.262       .  A
Cd888       O895   2.468       .  S
Cd888       O894   2.359       .  S
Cd888       O893   2.273       .  S
Cd888       O889   2.345       .  S
Cd888       O892   2.365       .  S
Cd888       O890   2.378       .  S
C891       C1392   1.509       .  S
C891        O895   1.265       .  A
C896        C899   1.602       .  S
C897        C898   1.520       .  S
C897        C903   1.508       .  S
C897        C901   1.486       .  S
C898        C899   1.380       .  D
C898        H905   1.080       .  S
C899        C900   1.577       .  S
C900        C904   1.613       .  S
C900        C902   1.580       .  S
C900        H906   1.103       .  S
C901        C902   1.373       .  D
C901        H907   1.086       .  S
C903        C904   1.367       .  D
C903        H908   1.085       .  S
C904        C909   1.594       .  S
C909        C910   1.539       .  S
C909        C915   1.526       .  S
C909        C913   1.563       .  S
C910        C911   1.378       .  D
C910        H917   1.086       .  S
C911        C912   1.575       .  S
C911        C947   1.509       .  S
C912        C916   1.548       .  S
C912        C914   1.533       .  S
C912        H918   1.110       .  S
C913        C914   1.369       .  D
C913        H919   1.079       .  S
C915        C916   1.398       .  D
C915        H920   1.084       .  S
C916        C959   1.535       .  S
C921        C922   1.572       .  S
C921        C927   1.535       .  S
C921        C925   1.543       .  S
C921        C933   1.612       .  S
C922        C923   1.378       .  D
C922        H929   1.072       .  S
C923        C924   1.522       .  S
C924        C928   1.516       .  S
C924        C926   1.534       .  S
C924        H930   1.111   1_554  S
C925        C926   1.390       .  D
C927        C928   1.359       .  D
C927       H2420   1.085       .  S
C928       C2132   1.463       .  S
H931       C1421   1.077       .  S
H932       C2415   1.085       .  S
C933        C934   1.561       .  S
C933        C939   1.529       .  S
C933        C937   1.538       .  S
C934        C935   1.365       .  D
C934       H2429   1.080       .  S
C935        C936   1.524       .  S
C935       C2092   1.488       .  S
C936        C940   1.547       .  S
C936        C938   1.570       .  S
C936        H942   1.111       .  S
C937        C938   1.390       .  D
C939        C940   1.376       .  D
C939        H944   1.085       .  S
C940        C988   1.527       .  S
H941       C2422   1.080       .  S
H943       C1433   1.081       .  S
C945        C946   1.528       .  S
C945        C951   1.533       .  S
C945        C949   1.536       .  S
C946        C947   1.372       .  D
C946        H953   1.075       .  S
C947        C948   1.570       .  S
C948        C952   1.543       .  S
C948        C950   1.563       .  S
C948        H954   1.109       .  S
C949        C950   1.353       .  D
C949        H955   1.075       .  S
C950        C962   1.494       .  S
C951        C952   1.374       .  D
C951        H956   1.080       .  S
C952        C983   1.521       .  S
C957        C958   1.493       .  S
C957        C963   1.517       .  S
C957        C961   1.495       .  S
C958       C1455   1.351       .  D
C958       H1461   1.085       .  S
C960       C1455   1.590       .  S
C960        C964   1.558       .  S
C960        C962   1.599       .  S
C960        H966   1.110       .  S
C961        C962   1.355       .  D
C961        H967   1.085       .  S
C963        C964   1.359       .  D
C963        H968   1.080       .  S
C964        C974   1.481       .  S
C969       C1434   1.544       .  S
C969        C970   1.541       .  S
C969        C975   1.525       .  S
C969        C973   1.554       .  S
C970        C971   1.385       .  D
C970        H977   1.081       .  S
C971        C972   1.533       .  S
C971        C986   1.527       .  S
C972        C976   1.561       .  S
C972        C974   1.537       .  S
C972        H978   1.111       .  S
C973        C974   1.366       .  D
C973       H1475   1.086       .  S
C975        C976   1.367       .  D
C975       H2468   1.087       .  S
C976       C2051   1.491       .  S
H980       C2463   1.086   1_455  S
C981        C982   1.503       .  S
C981        C987   1.506       .  S
C981        C985   1.503       .  S
C982        C983   1.373       .  D
C982        H989   1.081       .  S
C983        C984   1.584       .  S
C984        C988   1.568       .  S
C984        C986   1.595       .  S
C984        H990   1.109       .  S
C985        C986   1.368       .  D
C985        H991   1.087       .  S
C987        C988   1.363       .  D
C987        H992   1.080       .  S
C993        C995   1.505       .  S
C993       C1008   1.492       .  S
C993       C1047   1.560       .  S
C993       C1174   1.534       .  S
O994        C997   1.266       .  A
O994       Cd999   2.421       .  S
C995       O1004   1.271       .  A
C995       O1000   1.260       .  A
O996       C1002   1.267   1_565  A
C997       C1229   1.463       .  S
C997       O1005   1.266       .  A
C998       O1003   1.270       .  A
C998       O1001   1.260   1_655  A
C998       C2788   1.474       .  S
Cd999      O1006   2.398       .  S
Cd999      O1005   2.269       .  S
Cd999      O1004   2.362       .  S
Cd999      O1000   2.321       .  S
Cd999      O1003   2.517   1_455  S
Cd999      O1001   2.430       .  S
C1002      C1020   1.527   1_545  S
O1007      C1010   1.270       .  A
O1007     Cd1012   2.338       .  S
C1008      O1017   1.271       .  A
C1008      O1013   1.265       .  A
O1009      C1015   1.271   1_545  A
C1010      C1105   1.453       .  S
C1010      O1018   1.262       .  A
C1011      C1393   1.490       .  S
C1011      O1016   1.268       .  A
C1011      O1014   1.265       .  A
Cd1012     O1019   2.477       .  S
Cd1012     O1018   2.296       .  S
Cd1012     O1017   2.365       .  S
Cd1012     O1013   2.442       .  S
Cd1012     O1016   2.370       .  S
Cd1012     O1014   2.408       .  S
C1015      C1020   1.504       .  S
C1020      C1050   1.596       .  S
C1020      C1171   1.568       .  S
C1021      C1022   1.535       .  S
C1021      C1027   1.540       .  S
C1021      C1025   1.569       .  S
C1021      C1033   1.614       .  S
C1022      C1023   1.392       .  D
C1023      C1024   1.539       .  S
C1023      C1131   1.531       .  S
C1024      C1028   1.520       .  S
C1024      C1026   1.523       .  S
C1024      H1030   1.111   1_554  S
C1025      C1026   1.378       .  D
C1025      H1031   1.071       .  S
C1026      C1117   1.559       .  S
C1027      C1028   1.359       .  D
C1027      H1032   1.085       .  S
C1028      C1259   1.472       .  S
C1033      C1034   1.542       .  S
C1033      C1039   1.533       .  S
C1033      C1037   1.551       .  S
C1034      C1035   1.379       .  D
C1034      H1041   1.085       .  S
C1035      C1036   1.578       .  S
C1035      C1071   1.508       .  S
C1036      C1040   1.550       .  S
C1036      C1038   1.532       .  S
C1036      H1042   1.110       .  S
C1037      C1038   1.368       .  D
C1037      H1043   1.078       .  S
C1038      C1441   1.532       .  S
C1039      C1040   1.384       .  D
C1039      H1044   1.085       .  S
C1040      C1083   1.535       .  S
C1045      C2871   1.484   1_455  S
C1045      C1046   1.487       .  S
C1045      C1051   1.501       .  S
C1045      C1049   1.513       .  S
C1046      C1047   1.377       .  D
C1046      H1053   1.085       .  S
C1047      C1048   1.578       .  S
C1048      C1052   1.618       .  S
C1048      C1050   1.579       .  S
C1048      H1054   1.104       .  S
C1049      C1050   1.376       .  D
C1049      H1055   1.080       .  S
C1051      C1052   1.362       .  D
C1051      H1056   1.084       .  S
C1052      C1057   1.585       .  S
C1057      C1058   1.570       .  S
C1057      C1063   1.519       .  S
C1057      C1061   1.535       .  S
C1058      C1059   1.364       .  D
C1058      H2553   1.076   1_455  S
C1059      C1060   1.524       .  S
C1059      C2960   1.494   1_455  S
C1060      C1064   1.547       .  S
C1060      C1062   1.565       .  S
C1060      H1066   1.111       .  S
C1061      C1062   1.388       .  D
C1061      H1067   1.081       .  S
C1062      C1093   1.549       .  S
C1063      C1064   1.390       .  D
C1063      H1068   1.085       .  S
C1064      C1112   1.527       .  S
H1065      C2546   1.076       .  S
C1069      C1075   1.535       .  S
C1069      C1073   1.534       .  S
C1069      C1410   1.542       .  S
C1070      C1071   1.373   1_545  D
C1070      H1077   1.077   1_545  S
C1072      C1076   1.546       .  S
C1072      C1074   1.559       .  S
C1073      C1074   1.355       .  D
C1073      H1079   1.074       .  S
C1074      C1086   1.494       .  S
C1075      C1076   1.381       .  D
C1075      H1080   1.079       .  S
C1081      C1135   1.472       .  S
C1081      C1082   1.498       .  S
C1081      C1087   1.524       .  S
C1081      C1085   1.506       .  S
C1082      C1083   1.357       .  D
C1082      H1089   1.078       .  S
C1083      C1084   1.572       .  S
C1084      C1088   1.546       .  S
C1084      C1086   1.595       .  S
C1084      H1090   1.110       .  S
C1085      C1086   1.362       .  D
C1085      H1091   1.085       .  S
C1087      C1088   1.364       .  D
C1087      H1092   1.082       .  S
C1088      C1098   1.473       .  S
C1093      C1094   1.542       .  S
C1093      C1099   1.530       .  S
C1093      C1097   1.551       .  S
C1094      C1095   1.389       .  D
C1094      H1101   1.082       .  S
C1095      C1096   1.534       .  S
C1095      C1110   1.533       .  S
C1096      C1100   1.554       .  S
C1096      C1098   1.530       .  S
C1096      H1102   1.111       .  S
C1097      C1098   1.366       .  D
C1097      H1103   1.086       .  S
C1099      C1100   1.368       .  D
C1099      H2592   1.087   1_455  S
C1100      C2919   1.486   1_455  S
H1104      C2587   1.087       .  S
C1105      C1106   1.511       .  S
C1105      C1109   1.503       .  S
C1106      H1113   1.079       .  S
C1107      C1108   1.592   1_565  S
C1108      C1112   1.579   1_545  S
C1108      H1114   1.110   1_545  S
C1109      C1110   1.365       .  D
C1109      H1115   1.088       .  S
C1111      C1112   1.357   1_545  D
C1111      H1116   1.088       .  S
C1117      C1126   1.520   1_554  S
C1117      C1136   1.524       .  S
C1117      C1150   1.561   1_554  S
O1118      C1121   1.257       .  A
O1118     Cd1123   2.346       .  S
C1119      C1205   1.470       .  S
C1119      O1128   1.268       .  A
C1119      O1124   1.265       .  A
O1120      C1126   1.277   1_554  A
O1120     Cd1123   2.491   1_554  S
C1121      O1129   1.269   1_556  A
C1122      O1127   1.272       .  A
C1122      O1125   1.258       .  A
C1122      C1276   1.474       .  S
Cd1123     O1130   2.414       .  S
Cd1123     O1129   2.422   1_556  S
Cd1123     O1128   2.314       .  S
Cd1123     O1124   2.416       .  S
Cd1123     O1127   2.537       .  S
Cd1123     O1125   2.378       .  S
C1126      O1130   1.263       .  A
C1131      C1147   1.531   1_554  S
O1132      C1135   1.263       .  A
O1132     Cd1137   2.405       .  S
C1133      O1142   1.271   1_554  A
C1133      O1138   1.256       .  A
O1134      C1140   1.271       .  A
O1134     Cd1137   2.471   1_655  S
C1135      O1143   1.267       .  A
C1136      O1141   1.276   1_554  A
C1136      O1139   1.265       .  A
Cd1137     O1144   2.377       .  S
Cd1137     O1143   2.357       .  S
Cd1137     O1142   2.443   1_554  S
Cd1137     O1138   2.336       .  S
Cd1137     O1141   2.484   1_554  S
Cd1137     O1139   2.424       .  S
C1140      O1144   1.260   1_655  A
C1140      C2912   1.460       .  S
C1145      C1146   1.537       .  S
C1145      C1151   1.539       .  S
C1145      C1149   1.574       .  S
C1145      C1157   1.619       .  S
C1146      C1147   1.394       .  D
C1147      C1148   1.538       .  S
C1148      C1152   1.518       .  S
C1148      C1150   1.523       .  S
C1148      H1154   1.111   1_556  S
C1149      C1150   1.380       .  D
C1149      H1155   1.071       .  S
C1151      C1152   1.355       .  D
C1151      H2644   1.085       .  S
C1152      C2734   1.470       .  S
H1156      C2639   1.085       .  S
C1157      C1158   1.544       .  S
C1157      C1163   1.534       .  S
C1157      C1161   1.558       .  S
C1158      C1159   1.380       .  D
C1158      H1165   1.085       .  S
C1159      C1160   1.573       .  S
C1159      C1195   1.505       .  S
C1160      C1164   1.553       .  S
C1160      C1162   1.533       .  S
C1160      H1166   1.110       .  S
C1161      C1162   1.366       .  D
C1161      H2655   1.076       .  S
C1162      C2805   1.541   1_455  S
C1163      C1164   1.385       .  D
C1163      H1168   1.085       .  S
C1164      C1207   1.532       .  S
H1167      C2649   1.076       .  S
C1169      C1170   1.575       .  S
C1169      C1175   1.531       .  S
C1169      C1173   1.534       .  S
C1169      C1181   1.629       .  S
C1170      C1171   1.392       .  D
C1170      H1177   1.070       .  S
C1171      C1172   1.516       .  S
C1172      C1176   1.529       .  S
C1172      C1174   1.529       .  S
C1172      H1178   1.099       .  S
C1173      C1174   1.399       .  D
C1173      H1179   1.074       .  S
C1175      C1176   1.353       .  D
C1175      H1180   1.085       .  S
C1176      C1369   1.472       .  S
C1181      C1182   1.559       .  S
C1181      C1187   1.533       .  S
C1181      C1185   1.551       .  S
C1182      C1183   1.369       .  D
C1182      H1189   1.077       .  S
C1183      C1184   1.532       .  S
C1183      C1341   1.539       .  S
C1184      C1188   1.552       .  S
C1184      C1186   1.570       .  S
C1184      H1190   1.110       .  S
C1185      C1186   1.384       .  D
C1185      H1191   1.085       .  S
C1186      C1224   1.513       .  S
C1187      C1188   1.385       .  D
C1187      H1192   1.086       .  S
C1188      C1236   1.532       .  S
C1193      C1194   1.526       .  S
C1193      C1199   1.536       .  S
C1193      C1197   1.547       .  S
C1193      C2798   1.540   1_455  S
C1194      H2193   1.075   1_455  S
C1196      C1200   1.539       .  S
C1196      C1198   1.551       .  S
C1196      H1202   1.110       .  S
C1197      C1198   1.361       .  D
C1197      H1203   1.071       .  S
C1198      C1210   1.495       .  S
C1199      C1200   1.374       .  D
C1199      H1204   1.081       .  S
C1200      C1231   1.514       .  S
H1201      C1690   1.076   1_565  S
C1205      C1206   1.499       .  S
C1205      C1211   1.515       .  S
C1205      C1209   1.495       .  S
C1206      C1207   1.363       .  D
C1206      H1213   1.079       .  S
C1207      C1208   1.573       .  S
C1208      C1212   1.562       .  S
C1208      C1210   1.602       .  S
C1208      H1214   1.109       .  S
C1209      C1210   1.363       .  D
C1209      H1215   1.086       .  S
C1211      C1212   1.368       .  D
C1211      H1216   1.083       .  S
C1212      C1219   1.515       .  S
C1217      C1218   1.541       .  S
C1217      C1223   1.528       .  S
C1217      C1221   1.544       .  S
C1217      C1283   1.542       .  S
C1218      C1219   1.372       .  D
C1218      H1225   1.080       .  S
C1219      C1220   1.537       .  S
C1220      C1224   1.570       .  S
C1220      C1222   1.550       .  S
C1220      H1226   1.109       .  S
C1221      C1222   1.360       .  D
C1221      H1227   1.073       .  S
C1222      C1234   1.489       .  S
C1223      C1224   1.370       .  D
C1223      H1228   1.074       .  S
C1229      C1230   1.512       .  S
C1229      C1233   1.491       .  S
C1230      C1231   1.365       .  D
C1230      H1237   1.083       .  S
C1231      C1232   1.560       .  S
C1232      C1234   1.601       .  S
C1233      C1234   1.363       .  D
C1233      H1239   1.086       .  S
C1235      C1236   1.363   1_545  D
C1235      H1240   1.080       .  S
C1241      C1250   1.519   1_554  S
C1241      C1263   1.523       .  S
C1241      C1271   1.560   1_554  S
C1241      C1419   1.556       .  S
O1242      C1245   1.264       .  A
O1242     Cd1247   2.419       .  S
C1243      C1268   1.500   1_556  S
C1243      O1252   1.270   1_556  A
C1243      O1248   1.256       .  A
O1244      C1250   1.277   1_554  A
O1244     Cd1247   2.474   1_554  S
C1245      C1353   1.470       .  S
C1245      O1253   1.267       .  A
C1246      O1251   1.272       .  A
C1246      O1249   1.258       .  A
C1246      C2640   1.470       .  S
Cd1247     O1254   2.412       .  S
Cd1247     O1253   2.317       .  S
Cd1247     O1252   2.430   1_556  S
Cd1247     O1248   2.340       .  S
Cd1247     O1251   2.521       .  S
Cd1247     O1249   2.377       .  S
C1250      O1254   1.264       .  A
O1255      C1258   1.265       .  A
O1255     Cd1260   2.380       .  S
C1256      C1268   1.505       .  S
C1256      O1265   1.271   1_554  A
C1256      O1261   1.258       .  A
O1257      C1263   1.277       .  A
O1257     Cd1260   2.488       .  S
C1258      C1477   1.469       .  S
C1258      O1266   1.267       .  A
C1259      O1264   1.273       .  A
C1259      O1262   1.260       .  A
Cd1260     O1267   2.420       .  S
Cd1260     O1266   2.347       .  S
Cd1260     O1265   2.431   1_554  S
Cd1260     O1261   2.372       .  S
Cd1260     O1264   2.511       .  S
Cd1260     O1262   2.386       .  S
C1263      O1267   1.264       .  A
C1269      C1270   1.570       .  S
C1269      C1275   1.536       .  S
C1269      C1273   1.538       .  S
C1269      C1281   1.618       .  S
C1270      C1271   1.379       .  D
C1270      H1277   1.072       .  S
C1271      C1272   1.527       .  S
C1272      C1276   1.522       .  S
C1272      C1274   1.541       .  S
C1272      H1278   1.111   1_556  S
C1273      C1274   1.396       .  D
C1275      C1276   1.355       .  D
C1275      H1280   1.085       .  S
C1281      C1282   1.559       .  S
C1281      C1287   1.535       .  S
C1281      C1285   1.541       .  S
C1282      C1283   1.366       .  D
C1282      H1289   1.076       .  S
C1283      C1284   1.533       .  S
C1284      C1288   1.553       .  S
C1284      C1286   1.573       .  S
C1284      H1290   1.110       .  S
C1285      C1286   1.379       .  D
C1287      C1288   1.386       .  D
C1287      H1292   1.085       .  S
C1288      C1360   1.532       .  S
C1293      C1294   1.531       .  S
C1293      C1299   1.533       .  S
C1293      C1297   1.579       .  S
C1293      C1305   1.626       .  S
C1294      C1295   1.395       .  D
C1294      H1301   1.074       .  S
C1295      C1296   1.531       .  S
C1295      C1378   1.529       .  S
C1296      C1300   1.527       .  S
C1296      C1298   1.515       .  S
C1296      H1302   1.097       .  S
C1297      C1298   1.395       .  D
C1297      H1303   1.073       .  S
C1298      C1392   1.575       .  S
C1299      C1300   1.353       .  D
C1299      H2792   1.085       .  S
C1300      C2486   1.474       .  S
H1304      C2787   1.085       .  S
C1305      C1306   1.552       .  S
C1305      C1311   1.530       .  S
C1305      C1309   1.558       .  S
C1306      C1307   1.384       .  D
C1306      H1313   1.085       .  S
C1307      C1308   1.569       .  S
C1307      C1319   1.514       .  S
C1308      C1312   1.551       .  S
C1308      C1310   1.532       .  S
C1308      H1314   1.110       .  S
C1309      C1310   1.371       .  D
C1309      H2803   1.078       .  S
C1310      C2681   1.540       .  S
C1311      C1312   1.385       .  D
C1311      H1316   1.086       .  S
C1312      C1331   1.530       .  S
H1315      C2797   1.078       .  S
C1317      C2650   1.543       .  S
C1317      C1318   1.528       .  S
C1317      C1323   1.541       .  S
C1317      C1321   1.545       .  S
C1318      C1319   1.371       .  D
C1318      H2813   1.074       .  S
C1319      C1320   1.571       .  S
C1320      C1324   1.538       .  S
C1320      C1322   1.550       .  S
C1320      H1326   1.109       .  S
C1321      C1322   1.361       .  D
C1321      H1327   1.074       .  S
C1322      C1334   1.490       .  S
C1323      C1324   1.371       .  D
C1323      H1328   1.081       .  S
C1324      C1355   1.516       .  S
H1325      C2806   1.074   1_455  S
C1329      C1366   1.461       .  S
C1329      C1335   1.514       .  S
C1329      C1333   1.492       .  S
C1330      C1331   1.362       .  D
C1330      H1337   1.082       .  S
C1332      C1336   1.560       .  S
C1332      C1334   1.601       .  S
C1332      H1338   1.109       .  S
C1333      C1334   1.363       .  D
C1333      H1339   1.086       .  S
C1335      C1336   1.365       .  D
C1335      H1340   1.082       .  S
C1336      C1343   1.515       .  S
C1341      C1342   1.537       .  S
C1341      C1347   1.525       .  S
C1341      C1345   1.546       .  S
C1342      C1343   1.374       .  D
C1342      H1349   1.081       .  S
C1343      C1344   1.540       .  S
C1344      C1348   1.569       .  S
C1344      C1346   1.552       .  S
C1344      H1350   1.110       .  S
C1345      C1346   1.361       .  D
C1345      H1351   1.072       .  S
C1346      C1358   1.496       .  S
C1347      C1348   1.367       .  D
C1347      H1352   1.076       .  S
C1353      C1354   1.516       .  S
C1353      C1359   1.500       .  S
C1353      C1357   1.496       .  S
C1354      C1355   1.369       .  D
C1354      H1361   1.083       .  S
C1355      C1356   1.561       .  S
C1356      C1360   1.573       .  S
C1356      C1358   1.602       .  S
C1356      H1362   1.109       .  S
C1357      C1358   1.363       .  D
C1357      H1363   1.086       .  S
C1359      C1360   1.362       .  D
C1359      H1364   1.080       .  S
O1365      C1368   1.259       .  A
O1365     Cd1370   2.326       .  S
C1366      O1375   1.266       .  A
C1366      O1371   1.266       .  A
O1367      C1373   1.268       .  A
O1367     Cd1370   2.450       .  S
C1368      C1378   1.506       .  S
C1368      O1376   1.272       .  A
C1369      O1374   1.270       .  A
C1369      O1372   1.260       .  A
Cd1370     O1377   2.382       .  S
Cd1370     O1376   2.356       .  S
Cd1370     O1375   2.270       .  S
Cd1370     O1371   2.412       .  S
Cd1370     O1374   2.519       .  S
Cd1370     O1372   2.413       .  S
C1373      O1377   1.271       .  A
C1378      C1382   1.484       .  S
C1378      C1398   1.550       .  S
O1379      C1382   1.264       .  A
O1379     Cd1384   2.410       .  S
C1380      C1453   1.446       .  S
C1380      O1389   1.265       .  A
C1380      O1385   1.267       .  A
O1381      C1387   1.271       .  A
O1381     Cd1384   2.427       .  S
C1382      O1390   1.271       .  A
C1383      C2533   1.483       .  S
C1383      O1388   1.268       .  A
C1383      O1386   1.263       .  A
Cd1384     O1391   2.471       .  S
Cd1384     O1390   2.357       .  S
Cd1384     O1389   2.277       .  S
Cd1384     O1385   2.338       .  S
Cd1384     O1388   2.355       .  S
Cd1384     O1386   2.379       .  S
C1387      O1391   1.264       .  A
C1392      C1395   1.600       .  S
C1393      C1394   1.520       .  S
C1393      C1399   1.507       .  S
C1393      C1397   1.486       .  S
C1394      C1395   1.380       .  D
C1394      H1401   1.080       .  S
C1395      C1396   1.575       .  S
C1396      C1400   1.612       .  S
C1396      C1398   1.579       .  S
C1396      H1402   1.103       .  S
C1397      C1398   1.373       .  D
C1397      H1403   1.086       .  S
C1399      C1400   1.367       .  D
C1399      H1404   1.085       .  S
C1400      C1405   1.592       .  S
C1405      C1406   1.538       .  S
C1405      C1411   1.525       .  S
C1405      C1409   1.562       .  S
C1406      C1407   1.377       .  D
C1406      H1413   1.086       .  S
C1407      C1408   1.576       .  S
C1407      C1443   1.509       .  S
C1408      C1412   1.549       .  S
C1408      C1410   1.535       .  S
C1408      H1414   1.110       .  S
C1409      C1410   1.369       .  D
C1409      H1415   1.079       .  S
C1411      C1412   1.398       .  D
C1411      H1416   1.084       .  S
C1412      C1455   1.535       .  S
C1417      C1418   1.571       .  S
C1417      C1423   1.533       .  S
C1417      C1421   1.544       .  S
C1417      C1429   1.610       .  S
C1418      C1419   1.378       .  D
C1418      H1425   1.073       .  S
C1419      C1420   1.523       .  S
C1420      C1424   1.516       .  S
C1420      C1422   1.534       .  S
C1420      H1426   1.111   1_554  S
C1421      C1422   1.390       .  D
C1423      C1424   1.358       .  D
C1423      H2916   1.085       .  S
C1424      C2628   1.461       .  S
H1428      C2911   1.085       .  S
C1429      C1430   1.562       .  S
C1429      C1435   1.529       .  S
C1429      C1433   1.536       .  S
C1430      C1431   1.365       .  D
C1430      H2925   1.080       .  S
C1431      C1432   1.523       .  S
C1431      C2588   1.487       .  S
C1432      C1436   1.546       .  S
C1432      C1434   1.569       .  S
C1432      H1438   1.111       .  S
C1433      C1434   1.389       .  D
C1435      C1436   1.377       .  D
C1435      H1440   1.085       .  S
C1436      C1484   1.527       .  S
H1437      C2918   1.079       .  S
C1441      C1442   1.528       .  S
C1441      C1447   1.534       .  S
C1441      C1445   1.536       .  S
C1442      C1443   1.372       .  D
C1442      H1449   1.076       .  S
C1443      C1444   1.571       .  S
C1444      C1448   1.542       .  S
C1444      C1446   1.564       .  S
C1444      H1450   1.109       .  S
C1445      C1446   1.353       .  D
C1445      H1451   1.075       .  S
C1446      C1458   1.495       .  S
C1447      C1448   1.375       .  D
C1447      H1452   1.079       .  S
C1448      C1479   1.522       .  S
C1453      C1454   1.493       .  S
C1453      C1459   1.517       .  S
C1453      C1457   1.495       .  S
C1456      C1460   1.559       .  S
C1456      C1458   1.600       .  S
C1456      H1462   1.110       .  S
C1457      C1458   1.354       .  D
C1457      H1463   1.085       .  S
C1459      C1460   1.359       .  D
C1459      H1464   1.080       .  S
C1460      C1470   1.481       .  S
C1465      C1466   1.540       .  S
C1465      C1471   1.526       .  S
C1465      C1469   1.554   1_565  S
C1466      C1467   1.385       .  D
C1466      H1473   1.081       .  S
C1467      C1468   1.531       .  S
C1467      C1482   1.525       .  S
C1468      C1472   1.559       .  S
C1468      C1470   1.537       .  S
C1468      H1474   1.111       .  S
C1469      C1470   1.366   1_545  D
C1471      C1472   1.368       .  D
C1471      H2964   1.087       .  S
C1472      C2547   1.492       .  S
H1476      C2959   1.086   1_455  S
C1477      C1478   1.505       .  S
C1477      C1483   1.506       .  S
C1477      C1481   1.504       .  S
C1478      C1479   1.373       .  D
C1478      H1485   1.081       .  S
C1479      C1480   1.583       .  S
C1480      C1484   1.569       .  S
C1480      C1482   1.594       .  S
C1480      H1486   1.110       .  S
C1481      C1482   1.368       .  D
C1481      H1487   1.087       .  S
C1483      C1484   1.363       .  D
C1483      H1488   1.081       .  S
C1489      C1491   1.504       .  S
C1489      C1504   1.493       .  S
C1489      C1543   1.556       .  S
C1489      C1670   1.535       .  S
O1490      C1493   1.266       .  A
O1490     Cd1495   2.422       .  S
C1491      O1500   1.272       .  A
C1491      O1496   1.258       .  A
O1492      C1498   1.268       .  A
O1492     Cd1991   2.448       .  S
C1493      C1725   1.463       .  S
C1493      O1501   1.267       .  A
C1494      O1499   1.270       .  A
C1494      O1497   1.260       .  A
Cd1495     O2484   2.447   1_545  S
Cd1495     O1502   2.389       .  S
Cd1495     O1501   2.266       .  S
Cd1495     O1500   2.368       .  S
Cd1495     O1496   2.304       .  S
Cd1495     O1499   2.514       .  S
Cd1495     O1497   2.424       .  S
C1498      C1516   1.525       .  S
C1498      O1998   1.271       .  A
O1502      C2490   1.271       .  A
O1503      C1506   1.269       .  A
O1503     Cd1508   2.329       .  S
C1504      O1513   1.270       .  A
C1504      O1509   1.266       .  A
O1505      C1511   1.271       .  A
O1505     Cd2004   2.439       .  S
C1506      C1601   1.452       .  S
C1506      O1514   1.262       .  A
C1507      C1889   1.491       .  S
C1507      O1512   1.268       .  A
C1507      O1510   1.265       .  A
Cd1508     O2497   2.439       .  S
Cd1508     O1515   2.479       .  S
Cd1508     O1514   2.305       .  S
Cd1508     O1513   2.367       .  S
Cd1508     O1509   2.448       .  S
Cd1508     O1512   2.368       .  S
Cd1508     O1510   2.410       .  S
C1511      C1516   1.508       .  S
C1511      O2011   1.263       .  A
O1515      C2503   1.263   1_545  A
C1516      C1546   1.597       .  S
C1516      C1667   1.570       .  S
C1517      C1518   1.534       .  S
C1517      C1523   1.541       .  S
C1517      C1521   1.567       .  S
C1517      C1529   1.610       .  S
C1518      C1519   1.390       .  D
C1518      H2021   1.078       .  S
C1519      C1520   1.539       .  S
C1519      C1627   1.528       .  S
C1520      C1524   1.518       .  S
C1520      C1522   1.522       .  S
C1520      H1526   1.111   1_554  S
C1521      C1522   1.376       .  D
C1521      H1527   1.069       .  S
C1522      C1613   1.557       .  S
C1523      C1524   1.360       .  D
C1523      H1528   1.085       .  S
C1524      C1755   1.470       .  S
H1525      C2510   1.078       .  S
C1529      C1530   1.541       .  S
C1529      C1535   1.534       .  S
C1529      C1533   1.548       .  S
C1530      C1531   1.379       .  D
C1530      H1537   1.085       .  S
C1531      C1532   1.578       .  S
C1531      C1567   1.506       .  S
C1532      C1536   1.548       .  S
C1532      C1534   1.533       .  S
C1532      H1538   1.110       .  S
C1533      C1534   1.367       .  D
C1533      H1539   1.078       .  S
C1534      C1937   1.529       .  S
C1535      C1536   1.384       .  D
C1535      H1540   1.085       .  S
C1536      C1579   1.534       .  S
C1541      C1542   1.487       .  S
C1541      C1547   1.501       .  S
C1541      C1545   1.515       .  S
C1542      C1543   1.377       .  D
C1542      H1549   1.085       .  S
C1543      C1544   1.576       .  S
C1544      C1548   1.614       .  S
C1544      C1546   1.578       .  S
C1544      H1550   1.104       .  S
C1545      C1546   1.379       .  D
C1545      H1551   1.080       .  S
C1547      C1548   1.363       .  D
C1547      H1552   1.084       .  S
C1548      C1553   1.583       .  S
C1553      C1554   1.567       .  S
C1553      C1559   1.519       .  S
C1553      C1557   1.536       .  S
C1554      C1555   1.360       .  D
C1555      C1556   1.525       .  S
C1556      C1560   1.545       .  S
C1556      C1558   1.566       .  S
C1556      H1562   1.111       .  S
C1557      C1558   1.388       .  D
C1557      H1563   1.082       .  S
C1558      C1589   1.550       .  S
C1559      C1560   1.391       .  D
C1559      H1564   1.084       .  S
C1560      C1608   1.526       .  S
C1565      C2558   1.527       .  S
C1565      C1571   1.534   1_545  S
C1565      C1569   1.533       .  S
C1565      C1906   1.540       .  S
C1566      C2061   1.528       .  S
C1566      C1567   1.372       .  D
C1566      H1573   1.078       .  S
C1567      C2064   1.572       .  S
C1568      C2559   1.571   1_545  S
C1568      C1572   1.545   1_545  S
C1568      C1570   1.559       .  S
C1568      H2566   1.110   1_545  S
C1569      C1570   1.354       .  D
C1569      H1575   1.072       .  S
C1570      C1582   1.493       .  S
C1571      C1572   1.382       .  D
C1571      H1576   1.078       .  S
C1572      C2595   1.532       .  S
H1574      C2064   1.110       .  S
C1577      C1631   1.467       .  S
C1577      C1578   1.496       .  S
C1577      C1583   1.523       .  S
C1577      C1581   1.505       .  S
C1578      C1579   1.357       .  D
C1578      H1585   1.076       .  S
C1579      C1580   1.573       .  S
C1580      C1584   1.547       .  S
C1580      C1582   1.596       .  S
C1580      H1586   1.110       .  S
C1581      C1582   1.361       .  D
C1581      H1587   1.086       .  S
C1583      C1584   1.363       .  D
C1583      H1588   1.083       .  S
C1584      C1594   1.474       .  S
C1589      C1590   1.543       .  S
C1589      C1595   1.528       .  S
C1589      C1593   1.553       .  S
C1590      C1591   1.389       .  D
C1590      H1597   1.082       .  S
C1591      C1592   1.535       .  S
C1591      C1606   1.535       .  S
C1592      C1596   1.556       .  S
C1592      C1594   1.530       .  S
C1592      H1598   1.111       .  S
C1593      C1594   1.368       .  D
C1593      H1599   1.086       .  S
C1595      C1596   1.366       .  D
C1601      C1602   1.511       .  S
C1601      C2599   1.510       .  S
C1601      C1605   1.506       .  S
C1602      C2595   1.370   1_545  D
C1602      H1609   1.079   1_545  S
C1603      C1604   1.594       .  S
C1603      C2098   1.370       .  D
C1603      C2068   1.532       .  S
C1604      C1608   1.580       .  S
C1604      C2102   1.599       .  S
C1604      H1610   1.110       .  S
C1605      C1606   1.365       .  D
C1605      H1611   1.088       .  S
C1606      C2596   1.599       .  S
C1607      C2097   1.510       .  S
C1607      C1608   1.356       .  D
C1607      H1612   1.088       .  S
C1613      C1622   1.520   1_554  S
C1613      C1632   1.524       .  S
C1613      C1646   1.561   1_554  S
O1614      C1617   1.257       .  A
O1614     Cd1619   2.345       .  S
C1615      C1701   1.471       .  S
C1615      O1624   1.268       .  A
C1615      O1620   1.265       .  A
O1616      C1622   1.277   1_554  A
O1616     Cd1619   2.487   1_554  S
C1617      C2619   1.498   1_546  S
C1617      O1625   1.269   1_556  A
C1618      O1623   1.273       .  A
C1618      O1621   1.259       .  A
C1618      C1772   1.474       .  S
Cd1619     O1626   2.415       .  S
Cd1619     O1625   2.421   1_556  S
Cd1619     O1624   2.316       .  S
Cd1619     O1620   2.414       .  S
Cd1619     O1623   2.527       .  S
Cd1619     O1621   2.385       .  S
C1622      O1626   1.264       .  A
C1627      C2113   1.500   1_554  S
C1627      C2125   1.501       .  S
C1627      C1643   1.529   1_554  S
O1628      C1631   1.263       .  A
O1628     Cd1633   2.396       .  S
C1629      C2619   1.500   1_545  S
C1629      O1638   1.271   1_554  A
C1629      O1634   1.257       .  A
O1630      C1636   1.271       .  A
O1630     Cd1633   2.484       .  S
C1631      O1639   1.267       .  A
C1632      O1637   1.275       .  A
C1632      O1635   1.265       .  A
Cd1633     O1640   2.371       .  S
Cd1633     O1639   2.339       .  S
Cd1633     O1638   2.425   1_554  S
Cd1633     O1634   2.343       .  S
Cd1633     O1637   2.481       .  S
Cd1633     O1635   2.432       .  S
C1636      O1640   1.259       .  A
C1641      C1642   1.535       .  S
C1641      C1647   1.541       .  S
C1641      C1645   1.576       .  S
C1641      C1653   1.622       .  S
C1642      C1643   1.391       .  D
C1642      H2145   1.079       .  S
C1643      C1644   1.540       .  S
C1644      C1648   1.518       .  S
C1644      C1646   1.523       .  S
C1644      H1650   1.111   1_556  S
C1645      C1646   1.379       .  D
C1645      H1651   1.070       .  S
C1647      C1648   1.356       .  D
H1649      C2634   1.079       .  S
C1653      C1654   1.546       .  S
C1653      C1659   1.533       .  S
C1653      C1657   1.556       .  S
C1654      C1655   1.383       .  D
C1654      H1661   1.085       .  S
C1655      C1656   1.574       .  S
C1655      C1691   1.509       .  S
C1656      C1660   1.554       .  S
C1656      C1658   1.534       .  S
C1656      H1662   1.110       .  S
C1657      C1658   1.366       .  D
C1659      C1660   1.384       .  D
C1659      H1664   1.085       .  S
C1660      C1703   1.532       .  S
C1665      C1666   1.576       .  S
C1665      C1671   1.530       .  S
C1665      C1669   1.532       .  S
C1665      C1677   1.629       .  S
C1666      C1667   1.392       .  D
C1666      H1673   1.070       .  S
C1667      C1668   1.516       .  S
C1668      C1672   1.529       .  S
C1668      C1670   1.530       .  S
C1668      H1674   1.099       .  S
C1669      C1670   1.400       .  D
C1669      H1675   1.073       .  S
C1671      C1672   1.352       .  D
C1671      H1676   1.085       .  S
C1672      C1865   1.473       .  S
C1677      C1678   1.559       .  S
C1677      C1683   1.531       .  S
C1677      C1681   1.553       .  S
C1678      C1679   1.368       .  D
C1678      H1685   1.077       .  S
C1679      C1680   1.532       .  S
C1679      C1837   1.539       .  S
C1680      C1684   1.553       .  S
C1680      C1682   1.569       .  S
C1680      H1686   1.110       .  S
C1681      C1682   1.385       .  D
C1681      H1687   1.085       .  S
C1682      C1720   1.514       .  S
C1683      C1684   1.385       .  D
C1683      H1688   1.086       .  S
C1684      C1732   1.532       .  S
C1689      C1690   1.525       .  S
C1689      C1695   1.536       .  S
C1689      C1693   1.547       .  S
C1690      C2683   1.367   1_545  D
C1691      C2188   1.571       .  S
C1691      C2186   1.368       .  D
C1692      C2683   1.572   1_545  S
C1692      C1696   1.541   1_545  S
C1692      C1694   1.551       .  S
C1692      H1698   1.110   1_545  S
C1693      C1694   1.361       .  D
C1693      H1699   1.072       .  S
C1694      C1706   1.495       .  S
C1695      C1696   1.372   1_545  D
C1695      H1700   1.081   1_545  S
C1696      C1727   1.514   1_565  S
C1701      C1702   1.498       .  S
C1701      C1707   1.515       .  S
C1701      C1705   1.495       .  S
C1702      C1703   1.363       .  D
C1702      H1709   1.077       .  S
C1703      C1704   1.573       .  S
C1704      C1708   1.562       .  S
C1704      C1706   1.602       .  S
C1704      H1710   1.109       .  S
C1705      C1706   1.363       .  D
C1705      H1711   1.086       .  S
C1707      C1708   1.370       .  D
C1707      H1712   1.083       .  S
C1708      C1715   1.516       .  S
C1713      C1714   1.541       .  S
C1713      C1719   1.529       .  S
C1713      C1717   1.541       .  S
C1713      C1779   1.538       .  S
C1714      C1715   1.371       .  D
C1714      H1721   1.081       .  S
C1715      C1716   1.539       .  S
C1716      C1720   1.571       .  S
C1716      C1718   1.550       .  S
C1716      H1722   1.110       .  S
C1717      C1718   1.358       .  D
C1717      H1723   1.073       .  S
C1718      C1730   1.485       .  S
C1719      C1720   1.371       .  D
C1719      H1724   1.074       .  S
C1725      C1726   1.513       .  S
C1725      C2723   1.501       .  S
C1725      C1729   1.489       .  S
C1726      C1727   1.367       .  D
C1726      H1733   1.083       .  S
C1727      C1728   1.558       .  S
C1728      C2724   1.573   1_545  S
C1728      C1730   1.601       .  S
C1728      H2726   1.109   1_545  S
C1729      C1730   1.362       .  D
C1729      H1735   1.086       .  S
C1731      C2221   1.500       .  S
C1731      C1732   1.362       .  D
C1731      H1736   1.080       .  S
C1732      C2224   1.575       .  S
H1734      C2224   1.109       .  S
C1737      C1746   1.521   1_554  S
C1737      C1759   1.523       .  S
C1737      C1767   1.559   1_554  S
C1737      C1915   1.557       .  S
O1738      C1741   1.264       .  A
O1738     Cd1743   2.415       .  S
C1739      C1764   1.499   1_556  S
C1739      O1748   1.270   1_556  A
C1739      O1744   1.256       .  A
O1740      C1746   1.277   1_554  A
O1740     Cd1743   2.477   1_554  S
C1741      C1849   1.469       .  S
C1741      O1749   1.268       .  A
C1742      O1747   1.272       .  A
C1742      O1745   1.258   1_455  A
Cd1743     O1750   2.423       .  S
Cd1743     O1749   2.310       .  S
Cd1743     O1748   2.424   1_556  S
Cd1743     O1744   2.335       .  S
Cd1743     O1747   2.523   1_655  S
Cd1743     O1745   2.381       .  S
C1746      O1750   1.264       .  A
O1751      C1754   1.265       .  A
O1751     Cd1756   2.392       .  S
C1752      C1764   1.505       .  S
C1752      O1761   1.271   1_554  A
C1752      O1757   1.257       .  A
O1753      C1759   1.278   1_556  A
O1753     Cd1756   2.485   1_556  S
C1754      C1973   1.471       .  S
C1754      O1762   1.267       .  A
C1755      O1760   1.274       .  A
C1755      O1758   1.259       .  A
Cd1756     O1763   2.418       .  S
Cd1756     O1762   2.344       .  S
Cd1756     O1761   2.443   1_554  S
Cd1756     O1757   2.353       .  S
Cd1756     O1760   2.505       .  S
Cd1756     O1758   2.382       .  S
C1759      O1763   1.264       .  A
C1764      C2266   1.537   1_554  S
C1764      C2414   1.532       .  S
C1765      C1766   1.569       .  S
C1765      C1771   1.540       .  S
C1765      C1769   1.537       .  S
C1765      C1777   1.619       .  S
C1766      C1767   1.377       .  D
C1766      H1773   1.071       .  S
C1767      C1768   1.526       .  S
C1768      C1772   1.521       .  S
C1768      C1770   1.538       .  S
C1768      H1774   1.111   1_556  S
C1769      C1770   1.395       .  D
C1769      H2767   1.078       .  S
C1770      C2756   1.536   1_546  S
C1771      C1772   1.358       .  D
C1771      H1776   1.085       .  S
H1775      C2265   1.078       .  S
C1777      C1778   1.554       .  S
C1777      C1783   1.537       .  S
C1777      C1781   1.543       .  S
C1778      C1779   1.365       .  D
C1778      H1785   1.076       .  S
C1779      C1780   1.534       .  S
C1780      C1784   1.551       .  S
C1780      C1782   1.575       .  S
C1780      H1786   1.110       .  S
C1781      C1782   1.380       .  D
C1781      H2779   1.085   1_545  S
C1782      C2836   1.508   1_545  S
C1783      C1784   1.386       .  D
C1783      H1788   1.085       .  S
C1784      C1856   1.532       .  S
H1787      C2277   1.085       .  S
C1789      C1790   1.531       .  S
C1789      C1795   1.534       .  S
C1789      C1793   1.577       .  S
C1789      C1801   1.622       .  S
C1790      C1791   1.394       .  D
C1790      H1797   1.074       .  S
C1791      C1792   1.532       .  S
C1791      C1874   1.527       .  S
C1792      C1796   1.526       .  S
C1792      C1794   1.516       .  S
C1792      H1798   1.096       .  S
C1793      C1794   1.394       .  D
C1793      H1799   1.073       .  S
C1794      C1888   1.573       .  S
C1795      C1796   1.351       .  D
C1801      C1802   1.550       .  S
C1801      C1807   1.531       .  S
C1801      C1805   1.558       .  S
C1802      C1803   1.382       .  D
C1802      H1809   1.085       .  S
C1803      C1804   1.570       .  S
C1803      C1815   1.511       .  S
C1804      C1808   1.552       .  S
C1804      C1806   1.532       .  S
C1804      H1810   1.110       .  S
C1805      C1806   1.369       .  D
C1807      C1808   1.385       .  D
C1807      H1812   1.086       .  S
C1808      C1827   1.532   1_545  S
C1813      C1814   1.528       .  S
C1813      C1819   1.540       .  S
C1813      C1817   1.545       .  S
C1814      C1815   1.370       .  D
C1815      C1816   1.570       .  S
C1816      C1820   1.537       .  S
C1816      C1818   1.549       .  S
C1816      H1822   1.110       .  S
C1817      C1818   1.361       .  D
C1817      H1823   1.074       .  S
C1818      C1830   1.489       .  S
C1819      C1820   1.372       .  D
C1819      H1824   1.081       .  S
C1820      C1851   1.515       .  S
C1825      C1862   1.462       .  S
C1825      C2322   1.502       .  S
C1825      C1831   1.515       .  S
C1825      C1829   1.493       .  S
C1826      C2817   1.502       .  S
C1826      C1827   1.363       .  D
C1826      H1833   1.082       .  S
C1827      C2820   1.575       .  S
C1828      C2323   1.574       .  S
C1828      C1832   1.559       .  S
C1828      C1830   1.599       .  S
C1828      H1834   1.109       .  S
C1829      C1830   1.364       .  D
C1829      H1835   1.086       .  S
C1831      C1832   1.365       .  D
C1831      H1836   1.082       .  S
C1832      C1839   1.514       .  S
C1837      C1838   1.536       .  S
C1837      C1843   1.524       .  S
C1837      C1841   1.547       .  S
C1838      C1839   1.374       .  D
C1838      H1845   1.080       .  S
C1839      C1840   1.540       .  S
C1840      C1844   1.569       .  S
C1840      C1842   1.552       .  S
C1840      H1846   1.110       .  S
C1841      C1842   1.362       .  D
C1841      H1847   1.071       .  S
C1842      C1854   1.498       .  S
C1843      C1844   1.366       .  D
C1843      H1848   1.076       .  S
C1844      C2278   1.504       .  S
C1849      C1850   1.514       .  S
C1849      C1855   1.499       .  S
C1849      C1853   1.497       .  S
C1850      C1851   1.368       .  D
C1850      H1857   1.083       .  S
C1851      C1852   1.562       .  S
C1852      C1856   1.574       .  S
C1852      C1854   1.603       .  S
C1852      H1858   1.109       .  S
C1853      C1854   1.364       .  D
C1853      H1859   1.086       .  S
C1855      C1856   1.361       .  D
C1855      H1860   1.079       .  S
O1861      C1864   1.259       .  A
O1861     Cd1866   2.331       .  S
C1862      O1871   1.267       .  A
C1862      O1867   1.265       .  A
O1863      C1869   1.268       .  A
O1863     Cd1866   2.452       .  S
C1864      C1874   1.507       .  S
C1864      O1872   1.272       .  A
C1865      O1870   1.270       .  A
C1865      O1868   1.259       .  A
Cd1866     O1873   2.381       .  S
Cd1866     O1872   2.358       .  S
Cd1866     O1871   2.274       .  S
Cd1866     O1867   2.411       .  S
Cd1866     O1870   2.527       .  S
Cd1866     O1868   2.412       .  S
C1869      C2384   1.525       .  S
C1869      O1873   1.271       .  A
C1874      C1878   1.482       .  S
C1874      C1894   1.550       .  S
O1875      C1878   1.263       .  A
O1875     Cd1880   2.417       .  S
C1876      C1949   1.447       .  S
C1876      O1885   1.265       .  A
C1876      O1881   1.267       .  A
O1877      C1883   1.271       .  A
O1877     Cd1880   2.446       .  S
C1878      O1886   1.271       .  A
C1879      O1884   1.267       .  A
C1879      O1882   1.262       .  A
Cd1880     O1887   2.478       .  S
Cd1880     O1886   2.350       .  S
Cd1880     O1885   2.283       .  S
Cd1880     O1881   2.338       .  S
Cd1880     O1884   2.353       .  S
Cd1880     O1882   2.394       .  S
C1883      C2384   1.510       .  S
C1883      O1887   1.264       .  A
C1888      C2861   1.524   1_545  S
C1888      C2875   1.509   1_545  S
C1888      C1891   1.600       .  S
C1889      C1890   1.521       .  S
C1889      C1895   1.507       .  S
C1889      C1893   1.485       .  S
C1890      C1891   1.380       .  D
C1890      H1897   1.080       .  S
C1891      C1892   1.575       .  S
C1892      C1896   1.610       .  S
C1892      C1894   1.579       .  S
C1892      H1898   1.103       .  S
C1893      C1894   1.373       .  D
C1893      H1899   1.086       .  S
C1895      C1896   1.368       .  D
C1895      H1900   1.085       .  S
C1896      C1901   1.590       .  S
C1901      C1902   1.538       .  S
C1901      C1907   1.527       .  S
C1901      C1905   1.560       .  S
C1902      C1903   1.377       .  D
C1902      H1909   1.086       .  S
C1903      C1904   1.575       .  S
C1903      C1939   1.508       .  S
C1904      C1908   1.549       .  S
C1904      C1906   1.535       .  S
C1904      H1910   1.110       .  S
C1905      C1906   1.367       .  D
C1905      H1911   1.079       .  S
C1907      C1908   1.398       .  D
C1907      H1912   1.084       .  S
C1908      C1951   1.536   1_545  S
C1913      C1914   1.571       .  S
C1913      C1919   1.532       .  S
C1913      C1917   1.543       .  S
C1913      C1925   1.610       .  S
C1914      C1915   1.378       .  D
C1914      H1921   1.072       .  S
C1915      C1916   1.524       .  S
C1916      C1920   1.517       .  S
C1916      C1918   1.535       .  S
C1916      H1922   1.111   1_554  S
C1917      C1918   1.390       .  D
C1917      H2915   1.077       .  S
C1918      C2756   1.533   1_545  S
C1919      C1920   1.358       .  D
H1923      C2413   1.077       .  S
C1925      C1926   1.561       .  S
C1925      C1931   1.528       .  S
C1925      C1929   1.538       .  S
C1926      C1927   1.365       .  D
C1927      C1928   1.523       .  S
C1928      C1932   1.546       .  S
C1928      C1930   1.569       .  S
C1928      H1934   1.110       .  S
C1929      C1930   1.390       .  D
C1929      H2927   1.081   1_545  S
C1930      C2953   1.546   1_545  S
C1931      C1932   1.376       .  D
C1931      H1936   1.085       .  S
C1932      C1980   1.526       .  S
H1935      C2425   1.081       .  S
C1937      C1938   1.528       .  S
C1937      C1943   1.534       .  S
C1937      C1941   1.535       .  S
C1938      C1939   1.372       .  D
C1938      H1945   1.074       .  S
C1939      C1940   1.571       .  S
C1940      C1944   1.543       .  S
C1940      C1942   1.563       .  S
C1940      H1946   1.109       .  S
C1941      C1942   1.353       .  D
C1941      H1947   1.076       .  S
C1942      C1954   1.493       .  S
C1943      C1944   1.374       .  D
C1943      H1948   1.080       .  S
C1944      C1975   1.522       .  S
C1949      C1950   1.492       .  S
C1949      C1955   1.519       .  S
C1949      C1953   1.495       .  S
C1950      C2447   1.351       .  D
C1950      H2453   1.085       .  S
C1951      C2944   1.591       .  S
C1951      C2942   1.351       .  D
C1952      C2447   1.590       .  S
C1952      C1956   1.558       .  S
C1952      C1954   1.599       .  S
C1952      H1958   1.110       .  S
C1953      C1954   1.355       .  D
C1953      H1959   1.085       .  S
C1955      C1956   1.361       .  D
C1955      H1960   1.081       .  S
C1956      C1966   1.484       .  S
H1957      C2942   1.085       .  S
C1961      C2426   1.546       .  S
C1961      C1962   1.540       .  S
C1961      C1967   1.526       .  S
C1961      C1965   1.555       .  S
C1962      C1963   1.384       .  D
C1962      H1969   1.081       .  S
C1963      C1964   1.534       .  S
C1963      C1978   1.527       .  S
C1964      C1968   1.561       .  S
C1964      C1966   1.537       .  S
C1964      H1970   1.111       .  S
C1965      C1966   1.366       .  D
C1965      H2467   1.086       .  S
C1967      C1968   1.368       .  D
H1971      C2957   1.086       .  S
C1973      C1974   1.503       .  S
C1973      C1979   1.505       .  S
C1973      C1977   1.504       .  S
C1974      C1975   1.373       .  D
C1974      H1981   1.081       .  S
C1975      C1976   1.583       .  S
C1976      C1980   1.568       .  S
C1976      C1978   1.594       .  S
C1976      H1982   1.110       .  S
C1977      C1978   1.371       .  D
C1977      H1983   1.087       .  S
C1979      C1980   1.362       .  D
C1979      H1984   1.081       .  S
C1985      C1987   1.506       .  S
C1985      C2000   1.491       .  S
C1985      C2039   1.556       .  S
C1985      C2166   1.534       .  S
O1986      C1989   1.266       .  A
O1986     Cd1991   2.416       .  S
C1987      O1996   1.272       .  A
C1987      O1992   1.258       .  A
O1988      C1994   1.268       .  A
O1988     Cd2487   2.456       .  S
C1989      C2221   1.463       .  S
C1989      O1997   1.267       .  A
C1990      O1995   1.271       .  A
C1990      O1993   1.260       .  A
Cd1991     O1998   2.389       .  S
Cd1991     O1997   2.270       .  S
Cd1991     O1996   2.371       .  S
Cd1991     O1992   2.310       .  S
Cd1991     O1995   2.519       .  S
Cd1991     O1993   2.421       .  S
C1994      C2012   1.527       .  S
C1994      O2494   1.271       .  A
O1999      C2002   1.269       .  A
O1999     Cd2004   2.336       .  S
C2000      O2009   1.270       .  A
C2000      O2005   1.265       .  A
O2001      C2007   1.271       .  A
O2001     Cd2500   2.439       .  S
C2002      C2097   1.452       .  S
C2002      O2010   1.262       .  A
C2003      C2385   1.491       .  S
C2003      O2008   1.268       .  A
C2003      O2006   1.265       .  A
Cd2004     O2011   2.487       .  S
Cd2004     O2010   2.295       .  S
Cd2004     O2009   2.359       .  S
Cd2004     O2005   2.449       .  S
Cd2004     O2008   2.373       .  S
Cd2004     O2006   2.411       .  S
C2007      C2012   1.508       .  S
C2007      O2507   1.263       .  A
C2012      C2042   1.597       .  S
C2012      C2163   1.569       .  S
C2013      C2014   1.533       .  S
C2013      C2019   1.540       .  S
C2013      C2017   1.567       .  S
C2013      C2025   1.607       .  S
C2014      C2015   1.389       .  D
C2014      H2517   1.077       .  S
C2015      C2016   1.540       .  S
C2015      C2123   1.528       .  S
C2016      C2020   1.521       .  S
C2016      C2018   1.525       .  S
C2016      H2022   1.111   1_554  S
C2017      C2018   1.376       .  D
C2017      H2023   1.071       .  S
C2018      C2109   1.559       .  S
C2019      C2020   1.359       .  D
C2019      H2024   1.085       .  S
C2020      C2251   1.473       .  S
C2025      C2026   1.538       .  S
C2025      C2031   1.532       .  S
C2025      C2029   1.547       .  S
C2026      C2027   1.377       .  D
C2026      H2033   1.085       .  S
C2027      C2028   1.581       .  S
C2027      C2063   1.506       .  S
C2028      C2032   1.553       .  S
C2028      C2030   1.535       .  S
C2028      H2034   1.110       .  S
C2029      C2030   1.366       .  D
C2029      H2035   1.078       .  S
C2030      C2433   1.532       .  S
C2031      C2032   1.383       .  D
C2031      H2036   1.085       .  S
C2032      C2075   1.536       .  S
C2037      C2038   1.486       .  S
C2037      C2043   1.501       .  S
C2037      C2041   1.514       .  S
C2038      C2039   1.375       .  D
C2038      H2045   1.085       .  S
C2039      C2040   1.576       .  S
C2040      C2044   1.615       .  S
C2040      C2042   1.579       .  S
C2040      H2046   1.104       .  S
C2041      C2042   1.379       .  D
C2041      H2047   1.080       .  S
C2043      C2044   1.362       .  D
C2043      H2048   1.084       .  S
C2044      C2049   1.582       .  S
C2049      C2050   1.569       .  S
C2049      C2055   1.518       .  S
C2049      C2053   1.536       .  S
C2050      C2051   1.361       .  D
C2051      C2052   1.524       .  S
C2052      C2056   1.548       .  S
C2052      C2054   1.566       .  S
C2052      H2058   1.111       .  S
C2053      C2054   1.388       .  D
C2053      H2059   1.082       .  S
C2054      C2085   1.550       .  S
C2055      C2056   1.389       .  D
C2055      H2060   1.085       .  S
C2056      C2104   1.527       .  S
C2061      C2067   1.536       .  S
C2061      C2065   1.533       .  S
C2061      C2402   1.541       .  S
C2062      C2557   1.528       .  S
C2062      C2063   1.372       .  D
C2062      H2069   1.077       .  S
C2063      C2560   1.572       .  S
C2064      C2068   1.544       .  S
C2064      C2066   1.559       .  S
C2065      C2066   1.354       .  D
C2065      H2071   1.075       .  S
C2066      C2078   1.491       .  S
C2067      C2068   1.383       .  D
C2067      H2072   1.079       .  S
H2070      C2560   1.110       .  S
C2073      C2127   1.466       .  S
C2073      C2074   1.498       .  S
C2073      C2079   1.522       .  S
C2073      C2077   1.504       .  S
C2074      C2075   1.358       .  D
C2074      H2081   1.078       .  S
C2075      C2076   1.573       .  S
C2076      C2080   1.549       .  S
C2076      C2078   1.595       .  S
C2076      H2082   1.110       .  S
C2077      C2078   1.360       .  D
C2077      H2083   1.086       .  S
C2079      C2080   1.363       .  D
C2079      H2084   1.083       .  S
C2080      C2090   1.474       .  S
C2085      C2086   1.543       .  S
C2085      C2091   1.530       .  S
C2085      C2089   1.551       .  S
C2086      C2087   1.389       .  D
C2086      H2093   1.082       .  S
C2087      C2088   1.534       .  S
C2087      C2102   1.534       .  S
C2088      C2092   1.555       .  S
C2088      C2090   1.531       .  S
C2088      H2094   1.111       .  S
C2089      C2090   1.366       .  D
C2089      H2095   1.086       .  S
C2091      C2092   1.368       .  D
C2097      C2098   1.511       .  S
C2097      C2101   1.505       .  S
C2098      H2105   1.079       .  S
C2099      C2100   1.593       .  S
C2099      C2594   1.371       .  D
C2099      C2564   1.530       .  S
C2100      C2104   1.577       .  S
C2100      C2598   1.600       .  S
C2100      H2106   1.110       .  S
C2101      C2102   1.365       .  D
C2101      H2107   1.088       .  S
C2103      C2593   1.510       .  S
C2103      C2104   1.357       .  D
C2103      H2108   1.088       .  S
C2109      C2118   1.518   1_554  S
C2109      C2128   1.528       .  S
C2109      C2142   1.562   1_554  S
O2110      C2113   1.258       .  A
O2110     Cd2115   2.351       .  S
C2111      C2197   1.470       .  S
C2111      O2120   1.268       .  A
C2111      O2116   1.264       .  A
O2112      C2118   1.277   1_554  A
O2112     Cd2115   2.484   1_554  S
C2113      O2121   1.269   1_556  A
C2114      O2119   1.272       .  A
C2114      O2117   1.259       .  A
C2114      C2268   1.473       .  S
Cd2115     O2122   2.410       .  S
Cd2115     O2121   2.426   1_556  S
Cd2115     O2120   2.317       .  S
Cd2115     O2116   2.413       .  S
Cd2115     O2119   2.531       .  S
Cd2115     O2117   2.382       .  S
C2118      O2122   1.264       .  A
C2123      C2609   1.499   1_554  S
C2123      C2621   1.503       .  S
C2123      C2139   1.528   1_554  S
O2124      C2127   1.263       .  A
O2124     Cd2129   2.398       .  S
C2125      O2134   1.271   1_554  A
C2125      O2130   1.257       .  A
O2126      C2132   1.271       .  A
O2126     Cd2129   2.475       .  S
C2127      O2135   1.266       .  A
C2128      O2133   1.275       .  A
C2128      O2131   1.265       .  A
Cd2129     O2136   2.388       .  S
Cd2129     O2135   2.338       .  S
Cd2129     O2134   2.426   1_554  S
Cd2129     O2130   2.346       .  S
Cd2129     O2133   2.488       .  S
Cd2129     O2131   2.443       .  S
C2132      O2136   1.260       .  A
C2137      C2138   1.537       .  S
C2137      C2143   1.542       .  S
C2137      C2141   1.577       .  S
C2137      C2149   1.624       .  S
C2138      C2139   1.392       .  D
C2138      H2641   1.079       .  S
C2139      C2140   1.538       .  S
C2140      C2144   1.516       .  S
C2140      C2142   1.522       .  S
C2140      H2146   1.112   1_556  S
C2141      C2142   1.381       .  D
C2141      H2147   1.071       .  S
C2143      C2144   1.356       .  D
C2149      C2150   1.547       .  S
C2149      C2155   1.534       .  S
C2149      C2153   1.557       .  S
C2150      C2151   1.383       .  D
C2150      H2157   1.085       .  S
C2151      C2152   1.573       .  S
C2151      C2187   1.508       .  S
C2152      C2156   1.553       .  S
C2152      C2154   1.532       .  S
C2152      H2158   1.110       .  S
C2153      C2154   1.367       .  D
C2155      C2156   1.384       .  D
C2155      H2160   1.085       .  S
C2156      C2199   1.532       .  S
C2161      C2162   1.574       .  S
C2161      C2167   1.532       .  S
C2161      C2165   1.531       .  S
C2161      C2173   1.626       .  S
C2162      C2163   1.391       .  D
C2162      H2169   1.070       .  S
C2163      C2164   1.517       .  S
C2164      C2168   1.531       .  S
C2164      C2166   1.532       .  S
C2164      H2170   1.099       .  S
C2165      C2166   1.399       .  D
C2165      H2171   1.073       .  S
C2167      C2168   1.353       .  D
C2167      H2172   1.085       .  S
C2168      C2361   1.475       .  S
C2173      C2174   1.557       .  S
C2173      C2179   1.532       .  S
C2173      C2177   1.552       .  S
C2174      C2175   1.368       .  D
C2174      H2181   1.077       .  S
C2175      C2176   1.533       .  S
C2175      C2333   1.539       .  S
C2176      C2180   1.553       .  S
C2176      C2178   1.571       .  S
C2176      H2182   1.110       .  S
C2177      C2178   1.384       .  D
C2177      H2183   1.085       .  S
C2178      C2216   1.514       .  S
C2179      C2180   1.385       .  D
C2179      H2184   1.086       .  S
C2180      C2228   1.533       .  S
C2185      C2186   1.527       .  S
C2185      C2191   1.536       .  S
C2185      C2189   1.546       .  S
C2187      C2684   1.570       .  S
C2187      C2682   1.369       .  D
C2188      C2192   1.540       .  S
C2188      C2190   1.552       .  S
C2188      H2194   1.110       .  S
C2189      C2190   1.361       .  D
C2189      H2195   1.072       .  S
C2190      C2202   1.495       .  S
C2191      C2192   1.372       .  D
C2191      H2196   1.081       .  S
C2192      C2223   1.514       .  S
C2197      C2198   1.499       .  S
C2197      C2203   1.516       .  S
C2197      C2201   1.495       .  S
C2198      C2199   1.362       .  D
C2198      H2205   1.078       .  S
C2199      C2200   1.573       .  S
C2200      C2204   1.561       .  S
C2200      C2202   1.602       .  S
C2200      H2206   1.109       .  S
C2201      C2202   1.362       .  D
C2201      H2207   1.086       .  S
C2203      C2204   1.369       .  D
C2203      H2208   1.083       .  S
C2204      C2211   1.515       .  S
C2209      C2210   1.540       .  S
C2209      C2215   1.529       .  S
C2209      C2213   1.542       .  S
C2209      C2275   1.541       .  S
C2210      C2211   1.372       .  D
C2210      H2217   1.081       .  S
C2211      C2212   1.539       .  S
C2212      C2216   1.570       .  S
C2212      C2214   1.550       .  S
C2212      H2218   1.110       .  S
C2213      C2214   1.359       .  D
C2213      H2219   1.074       .  S
C2214      C2226   1.487       .  S
C2215      C2216   1.371       .  D
C2215      H2220   1.074       .  S
C2221      C2222   1.514       .  S
C2221      C2225   1.491       .  S
C2222      C2223   1.367       .  D
C2222      H2229   1.083       .  S
C2223      C2224   1.559       .  S
C2224      C2226   1.601       .  S
C2225      C2226   1.363       .  D
C2225      H2231   1.086       .  S
C2227      C2717   1.500       .  S
C2227      C2228   1.362       .  D
C2227      H2232   1.079       .  S
C2228      C2720   1.574       .  S
H2230      C2720   1.109       .  S
C2233      C2242   1.520   1_554  S
C2233      C2255   1.521       .  S
C2233      C2263   1.559   1_554  S
C2233      C2411   1.560       .  S
O2234      C2237   1.264       .  A
O2234     Cd2239   2.422       .  S
C2235      C2260   1.500   1_556  S
C2235      O2244   1.269   1_556  A
C2235      O2240   1.257       .  A
O2236      C2242   1.277   1_554  A
O2236     Cd2239   2.476   1_554  S
C2237      C2345   1.468       .  S
C2237      O2245   1.266       .  A
C2238      O2243   1.271       .  A
C2238      O2241   1.259   1_455  A
Cd2239     O2246   2.416       .  S
Cd2239     O2245   2.312       .  S
Cd2239     O2244   2.425   1_556  S
Cd2239     O2240   2.343       .  S
Cd2239     O2243   2.511   1_655  S
Cd2239     O2241   2.387       .  S
C2242      O2246   1.265       .  A
O2247      C2250   1.265       .  A
O2247     Cd2252   2.373       .  S
C2248      C2260   1.505       .  S
C2248      O2257   1.271   1_554  A
C2248      O2253   1.257       .  A
O2249      C2255   1.278   1_556  A
O2249     Cd2252   2.485   1_556  S
C2250      C2469   1.470       .  S
C2250      O2258   1.268       .  A
C2251      O2256   1.274       .  A
C2251      O2254   1.259       .  A
Cd2252     O2259   2.414       .  S
Cd2252     O2258   2.353       .  S
Cd2252     O2257   2.436   1_554  S
Cd2252     O2253   2.361       .  S
Cd2252     O2256   2.514       .  S
Cd2252     O2254   2.381       .  S
C2255      O2259   1.264       .  A
C2260      C2762   1.537   1_554  S
C2260      C2910   1.533       .  S
C2261      C2262   1.571       .  S
C2261      C2267   1.539       .  S
C2261      C2265   1.539       .  S
C2261      C2273   1.622       .  S
C2262      C2263   1.379       .  D
C2262      H2269   1.072       .  S
C2263      C2264   1.525       .  S
C2264      C2268   1.521       .  S
C2264      C2266   1.538       .  S
C2264      H2270   1.111   1_556  S
C2265      C2266   1.397       .  D
C2267      C2268   1.357       .  D
C2267      H2272   1.085       .  S
H2271      C2761   1.079       .  S
C2273      C2274   1.558       .  S
C2273      C2279   1.536       .  S
C2273      C2277   1.543       .  S
C2274      C2275   1.366       .  D
C2274      H2281   1.076       .  S
C2275      C2276   1.533       .  S
C2276      C2280   1.550       .  S
C2276      C2278   1.571       .  S
C2276      H2282   1.110       .  S
C2277      C2278   1.381       .  D
C2279      C2280   1.386       .  D
C2279      H2284   1.085       .  S
C2280      C2352   1.529       .  S
H2283      C2773   1.085       .  S
C2285      C2286   1.533       .  S
C2285      C2291   1.534       .  S
C2285      C2289   1.578       .  S
C2285      C2297   1.622       .  S
C2286      C2287   1.395       .  D
C2286      H2293   1.075       .  S
C2287      C2288   1.532       .  S
C2287      C2370   1.528       .  S
C2288      C2292   1.525       .  S
C2288      C2290   1.517       .  S
C2288      H2294   1.097       .  S
C2289      C2290   1.395       .  D
C2289      H2295   1.074       .  S
C2290      C2384   1.574       .  S
C2291      C2292   1.351       .  D
C2297      C2298   1.548       .  S
C2297      C2303   1.530       .  S
C2297      C2301   1.561       .  S
C2298      C2299   1.381       .  D
C2298      H2305   1.085       .  S
C2299      C2300   1.569       .  S
C2299      C2311   1.508       .  S
C2300      C2304   1.551       .  S
C2300      C2302   1.532       .  S
C2300      H2306   1.110       .  S
C2301      C2302   1.370       .  D
C2303      C2304   1.385       .  D
C2303      H2308   1.086       .  S
C2304      C2323   1.530       .  S
C2309      C2310   1.526       .  S
C2309      C2315   1.541       .  S
C2309      C2313   1.546       .  S
C2310      C2311   1.368       .  D
C2311      C2312   1.570       .  S
C2312      C2316   1.537       .  S
C2312      C2314   1.550       .  S
C2312      H2318   1.109       .  S
C2313      C2314   1.362       .  D
C2313      H2319   1.074       .  S
C2314      C2326   1.492       .  S
C2315      C2316   1.372       .  D
C2315      H2320   1.081       .  S
C2316      C2347   1.515       .  S
C2321      C2358   1.460       .  S
C2321      C2818   1.501       .  S
C2321      C2327   1.514       .  S
C2321      C2325   1.493       .  S
C2322      C2323   1.364       .  D
C2322      H2329   1.082       .  S
C2324      C2819   1.575       .  S
C2324      C2328   1.561       .  S
C2324      C2326   1.601       .  S
C2324      H2330   1.109       .  S
C2325      C2326   1.364       .  D
C2325      H2331   1.085       .  S
C2327      C2328   1.365       .  D
C2327      H2332   1.083       .  S
C2328      C2335   1.515       .  S
C2333      C2334   1.538       .  S
C2333      C2339   1.526       .  S
C2333      C2337   1.547       .  S
C2334      C2335   1.374       .  D
C2334      H2341   1.081       .  S
C2335      C2336   1.538       .  S
C2336      C2340   1.569       .  S
C2336      C2338   1.552       .  S
C2336      H2342   1.110       .  S
C2337      C2338   1.362       .  D
C2337      H2343   1.071       .  S
C2338      C2350   1.496       .  S
C2339      C2340   1.367       .  D
C2339      H2344   1.076       .  S
C2340      C2774   1.506       .  S
C2345      C2346   1.514       .  S
C2345      C2351   1.499       .  S
C2345      C2349   1.494       .  S
C2346      C2347   1.368       .  D
C2346      H2353   1.083       .  S
C2347      C2348   1.561       .  S
C2348      C2352   1.573       .  S
C2348      C2350   1.602       .  S
C2348      H2354   1.109       .  S
C2349      C2350   1.363       .  D
C2349      H2355   1.086       .  S
C2351      C2352   1.362       .  D
C2351      H2356   1.080       .  S
O2357      C2360   1.259       .  A
O2357     Cd2362   2.337       .  S
C2358      O2367   1.268       .  A
C2358      O2363   1.266       .  A
O2359      C2365   1.267       .  A
O2359     Cd2362   2.445       .  S
C2360      C2370   1.506       .  S
C2360      O2368   1.273       .  A
C2361      O2366   1.271       .  A
C2361      O2364   1.260       .  A
Cd2362     O2369   2.381       .  S
Cd2362     O2368   2.354       .  S
Cd2362     O2367   2.266       .  S
Cd2362     O2363   2.405       .  S
Cd2362     O2366   2.526       .  S
Cd2362     O2364   2.415       .  S
C2365      C2880   1.523       .  S
C2365      O2369   1.271       .  A
C2370      C2374   1.484       .  S
C2370      C2390   1.549       .  S
O2371      C2374   1.264       .  A
O2371     Cd2376   2.414       .  S
C2372      C2445   1.447       .  S
C2372      O2381   1.265       .  A
C2372      O2377   1.267       .  A
O2373      C2379   1.272       .  A
O2373     Cd2376   2.443       .  S
C2374      O2382   1.272       .  A
C2375      O2380   1.268       .  A
C2375      O2378   1.263       .  A
Cd2376     O2383   2.482       .  S
Cd2376     O2382   2.357       .  S
Cd2376     O2381   2.281       .  S
Cd2376     O2377   2.334       .  S
Cd2376     O2380   2.355       .  S
Cd2376     O2378   2.392       .  S
C2379      C2880   1.510       .  S
C2379      O2383   1.264       .  A
C2384      C2387   1.600       .  S
C2385      C2386   1.521       .  S
C2385      C2391   1.508       .  S
C2385      C2389   1.486       .  S
C2386      C2387   1.380       .  D
C2386      H2393   1.081       .  S
C2387      C2388   1.576       .  S
C2388      C2392   1.611       .  S
C2388      C2390   1.579       .  S
C2388      H2394   1.103       .  S
C2389      C2390   1.373       .  D
C2389      H2395   1.086       .  S
C2391      C2392   1.368       .  D
C2391      H2396   1.085       .  S
C2392      C2397   1.591       .  S
C2397      C2398   1.538       .  S
C2397      C2403   1.525       .  S
C2397      C2401   1.561       .  S
C2398      C2399   1.378       .  D
C2398      H2405   1.086       .  S
C2399      C2400   1.576       .  S
C2399      C2435   1.508       .  S
C2400      C2404   1.547       .  S
C2400      C2402   1.536       .  S
C2400      H2406   1.110       .  S
C2401      C2402   1.367       .  D
C2401      H2407   1.079       .  S
C2403      C2404   1.398       .  D
C2403      H2408   1.083       .  S
C2404      C2447   1.534       .  S
C2409      C2410   1.573       .  S
C2409      C2415   1.533       .  S
C2409      C2413   1.542       .  S
C2409      C2421   1.613       .  S
C2410      C2411   1.380       .  D
C2410      H2417   1.073       .  S
C2411      C2412   1.522       .  S
C2412      C2416   1.516       .  S
C2412      C2414   1.534       .  S
C2412      H2418   1.111   1_554  S
C2413      C2414   1.391       .  D
C2415      C2416   1.358       .  D
H2419      C2909   1.077       .  S
C2421      C2422   1.561       .  S
C2421      C2427   1.528       .  S
C2421      C2425   1.539       .  S
C2422      C2423   1.365       .  D
C2423      C2424   1.522       .  S
C2424      C2428   1.545       .  S
C2424      C2426   1.568       .  S
C2424      H2430   1.111       .  S
C2425      C2426   1.391       .  D
C2427      C2428   1.378       .  D
C2427      H2432   1.085       .  S
C2428      C2476   1.527       .  S
H2431      C2921   1.081       .  S
C2433      C2434   1.526       .  S
C2433      C2439   1.534       .  S
C2433      C2437   1.536       .  S
C2434      C2435   1.370       .  D
C2434      H2441   1.076       .  S
C2435      C2436   1.573       .  S
C2436      C2440   1.545       .  S
C2436      C2438   1.564       .  S
C2436      H2442   1.109       .  S
C2437      C2438   1.353       .  D
C2437      H2443   1.075       .  S
C2438      C2450   1.495       .  S
C2439      C2440   1.374       .  D
C2439      H2444   1.079       .  S
C2440      C2471   1.524       .  S
C2445      C2446   1.494       .  S
C2445      C2451   1.517       .  S
C2445      C2449   1.497       .  S
C2446      C2943   1.352       .  D
C2446      H2949   1.084       .  S
C2448      C2943   1.588       .  S
C2448      C2452   1.559       .  S
C2448      C2450   1.599       .  S
C2448      H2454   1.110       .  S
C2449      C2450   1.354       .  D
C2449      H2455   1.085       .  S
C2451      C2452   1.360       .  D
C2451      H2456   1.080       .  S
C2452      C2462   1.481       .  S
C2457      C2922   1.548       .  S
C2457      C2458   1.540       .  S
C2457      C2463   1.528       .  S
C2457      C2461   1.554       .  S
C2458      C2459   1.384       .  D
C2458      H2465   1.081       .  S
C2459      C2460   1.532       .  S
C2459      C2474   1.525       .  S
C2460      C2464   1.559       .  S
C2460      C2462   1.537       .  S
C2460      H2466   1.111       .  S
C2461      C2462   1.366       .  D
C2461      H2963   1.086       .  S
C2463      C2464   1.369       .  D
C2469      C2470   1.506       .  S
C2469      C2475   1.505       .  S
C2469      C2473   1.505       .  S
C2470      C2471   1.374       .  D
C2470      H2477   1.081       .  S
C2471      C2472   1.582       .  S
C2472      C2476   1.571       .  S
C2472      C2474   1.594       .  S
C2472      H2478   1.110       .  S
C2473      C2474   1.369       .  D
C2473      H2479   1.087       .  S
C2475      C2476   1.362       .  D
C2475      H2480   1.081       .  S
C2481      C2483   1.503       .  S
C2481      C2496   1.492       .  S
C2481      C2535   1.556       .  S
C2481      C2662   1.533       .  S
O2482      C2485   1.266       .  A
O2482     Cd2487   2.419       .  S
C2483      O2492   1.272       .  A
C2483      O2488   1.259       .  A
O2484      C2490   1.267   1_565  A
C2485      C2717   1.462       .  S
C2485      O2493   1.267       .  A
C2486      O2491   1.271       .  A
C2486      O2489   1.260       .  A
Cd2487     O2494   2.395       .  S
Cd2487     O2493   2.262       .  S
Cd2487     O2492   2.359       .  S
Cd2487     O2488   2.309       .  S
Cd2487     O2491   2.517       .  S
Cd2487     O2489   2.421       .  S
C2490      C2508   1.525   1_545  S
O2495      C2498   1.269       .  A
O2495     Cd2500   2.335       .  S
C2496      O2505   1.270       .  A
C2496      O2501   1.265       .  A
O2497      C2503   1.271   1_545  A
C2498      C2593   1.453       .  S
C2498      O2506   1.262       .  A
C2499      C2881   1.491       .  S
C2499      O2504   1.268       .  A
C2499      O2502   1.265       .  A
Cd2500     O2507   2.483       .  S
Cd2500     O2506   2.299       .  S
Cd2500     O2505   2.366       .  S
Cd2500     O2501   2.448       .  S
Cd2500     O2504   2.372       .  S
Cd2500     O2502   2.411       .  S
C2503      C2508   1.507       .  S
C2508      C2538   1.597       .  S
C2508      C2659   1.570       .  S
C2509      C2510   1.535       .  S
C2509      C2515   1.542       .  S
C2509      C2513   1.567       .  S
C2509      C2521   1.609       .  S
C2510      C2511   1.390       .  D
C2511      C2512   1.539       .  S
C2511      C2619   1.528       .  S
C2512      C2516   1.519       .  S
C2512      C2514   1.522       .  S
C2512      H2518   1.111   1_554  S
C2513      C2514   1.376       .  D
C2513      H2519   1.070       .  S
C2514      C2605   1.557       .  S
C2515      C2516   1.360       .  D
C2515      H2520   1.085       .  S
C2516      C2747   1.473       .  S
C2521      C2522   1.539       .  S
C2521      C2527   1.533       .  S
C2521      C2525   1.549       .  S
C2522      C2523   1.378       .  D
C2522      H2529   1.085       .  S
C2523      C2524   1.578       .  S
C2523      C2559   1.504       .  S
C2524      C2528   1.550       .  S
C2524      C2526   1.533       .  S
C2524      H2530   1.110       .  S
C2525      C2526   1.367       .  D
C2525      H2531   1.078       .  S
C2526      C2929   1.530       .  S
C2527      C2528   1.384       .  D
C2527      H2532   1.085       .  S
C2528      C2571   1.534       .  S
C2533      C2534   1.487       .  S
C2533      C2539   1.501       .  S
C2533      C2537   1.514       .  S
C2534      C2535   1.376       .  D
C2534      H2541   1.085       .  S
C2535      C2536   1.576       .  S
C2536      C2540   1.616       .  S
C2536      C2538   1.579       .  S
C2536      H2542   1.104       .  S
C2537      C2538   1.379       .  D
C2537      H2543   1.080       .  S
C2539      C2540   1.362       .  D
C2539      H2544   1.084       .  S
C2540      C2545   1.584       .  S
C2545      C2546   1.569       .  S
C2545      C2551   1.519       .  S
C2545      C2549   1.536       .  S
C2546      C2547   1.362       .  D
C2547      C2548   1.524       .  S
C2548      C2552   1.546       .  S
C2548      C2550   1.565       .  S
C2548      H2554   1.111       .  S
C2549      C2550   1.388       .  D
C2549      H2555   1.082       .  S
C2550      C2581   1.549       .  S
C2551      C2552   1.390       .  D
C2551      H2556   1.084       .  S
C2552      C2600   1.526       .  S
C2557      C2563   1.535       .  S
C2557      C2561   1.534       .  S
C2557      C2898   1.541       .  S
C2558      C2559   1.372   1_545  D
C2558      H2565   1.076   1_545  S
C2560      C2564   1.544       .  S
C2560      C2562   1.560       .  S
C2561      C2562   1.354       .  D
C2561      H2567   1.074       .  S
C2562      C2574   1.494       .  S
C2563      C2564   1.381       .  D
C2563      H2568   1.080       .  S
C2569      C2623   1.468       .  S
C2569      C2570   1.496       .  S
C2569      C2575   1.523       .  S
C2569      C2573   1.505       .  S
C2570      C2571   1.357       .  D
C2570      H2577   1.077       .  S
C2571      C2572   1.573       .  S
C2572      C2576   1.549       .  S
C2572      C2574   1.595       .  S
C2572      H2578   1.110       .  S
C2573      C2574   1.360       .  D
C2573      H2579   1.086       .  S
C2575      C2576   1.364       .  D
C2575      H2580   1.083       .  S
C2576      C2586   1.475       .  S
C2581      C2582   1.543       .  S
C2581      C2587   1.529       .  S
C2581      C2585   1.552       .  S
C2582      C2583   1.389       .  D
C2582      H2589   1.082       .  S
C2583      C2584   1.534       .  S
C2583      C2598   1.534       .  S
C2584      C2588   1.555       .  S
C2584      C2586   1.530       .  S
C2584      H2590   1.111       .  S
C2585      C2586   1.367       .  D
C2585      H2591   1.086       .  S
C2587      C2588   1.368       .  D
C2593      C2594   1.509       .  S
C2593      C2597   1.504       .  S
C2594      H2601   1.079       .  S
C2595      C2596   1.594   1_565  S
C2596      C2600   1.581   1_545  S
C2596      H2602   1.110   1_545  S
C2597      C2598   1.365       .  D
C2597      H2603   1.088       .  S
C2599      C2600   1.356   1_545  D
C2599      H2604   1.088       .  S
C2605      C2614   1.520   1_554  S
C2605      C2624   1.525       .  S
C2605      C2638   1.562   1_554  S
O2606      C2609   1.258       .  A
O2606     Cd2611   2.352       .  S
C2607      C2693   1.472       .  S
C2607      O2616   1.268       .  A
C2607      O2612   1.265       .  A
O2608      C2614   1.278   1_554  A
O2608     Cd2611   2.488   1_554  S
C2609      O2617   1.269   1_556  A
C2610      O2615   1.273       .  A
C2610      O2613   1.258       .  A
C2610      C2764   1.476       .  S
Cd2611     O2618   2.413       .  S
Cd2611     O2617   2.422   1_556  S
Cd2611     O2616   2.319       .  S
Cd2611     O2612   2.418       .  S
Cd2611     O2615   2.542       .  S
Cd2611     O2613   2.380       .  S
C2614      O2618   1.263       .  A
C2619      C2635   1.529   1_554  S
O2620      C2623   1.263       .  A
O2620     Cd2625   2.390       .  S
C2621      O2630   1.271   1_554  A
C2621      O2626   1.256       .  A
O2622      C2628   1.272       .  A
O2622     Cd2625   2.480       .  S
C2623      O2631   1.268       .  A
C2624      O2629   1.275       .  A
C2624      O2627   1.265       .  A
Cd2625     O2632   2.371       .  S
Cd2625     O2631   2.350       .  S
Cd2625     O2630   2.433   1_554  S
Cd2625     O2626   2.344       .  S
Cd2625     O2629   2.485       .  S
Cd2625     O2627   2.430       .  S
C2628      O2632   1.259       .  A
C2633      C2634   1.536       .  S
C2633      C2639   1.539       .  S
C2633      C2637   1.575       .  S
C2633      C2645   1.621       .  S
C2634      C2635   1.392       .  D
C2635      C2636   1.539       .  S
C2636      C2640   1.518       .  S
C2636      C2638   1.523       .  S
C2636      H2642   1.112   1_556  S
C2637      C2638   1.380       .  D
C2637      H2643   1.071       .  S
C2639      C2640   1.356       .  D
C2645      C2646   1.545       .  S
C2645      C2651   1.533       .  S
C2645      C2649   1.558       .  S
C2646      C2647   1.382       .  D
C2646      H2653   1.085       .  S
C2647      C2648   1.573       .  S
C2647      C2683   1.506       .  S
C2648      C2652   1.553       .  S
C2648      C2650   1.534       .  S
C2648      H2654   1.110       .  S
C2649      C2650   1.366       .  D
C2651      C2652   1.384       .  D
C2651      H2656   1.085       .  S
C2652      C2695   1.531       .  S
C2657      C2658   1.575       .  S
C2657      C2663   1.531       .  S
C2657      C2661   1.532       .  S
C2657      C2669   1.627       .  S
C2658      C2659   1.392       .  D
C2658      H2665   1.069       .  S
C2659      C2660   1.516       .  S
C2660      C2664   1.530       .  S
C2660      C2662   1.530       .  S
C2660      H2666   1.099       .  S
C2661      C2662   1.399       .  D
C2661      H2667   1.074       .  S
C2663      C2664   1.353       .  D
C2663      H2668   1.085       .  S
C2664      C2857   1.474       .  S
C2669      C2670   1.558       .  S
C2669      C2675   1.531       .  S
C2669      C2673   1.552       .  S
C2670      C2671   1.369       .  D
C2670      H2677   1.077       .  S
C2671      C2672   1.533       .  S
C2671      C2829   1.539       .  S
C2672      C2676   1.553       .  S
C2672      C2674   1.571       .  S
C2672      H2678   1.110       .  S
C2673      C2674   1.385       .  D
C2673      H2679   1.085       .  S
C2674      C2712   1.515       .  S
C2675      C2676   1.385       .  D
C2675      H2680   1.086       .  S
C2676      C2724   1.532       .  S
C2681      C2682   1.527       .  S
C2681      C2687   1.535       .  S
C2681      C2685   1.547       .  S
C2684      C2688   1.540       .  S
C2684      C2686   1.550       .  S
C2684      H2690   1.110       .  S
C2685      C2686   1.362       .  D
C2685      H2691   1.072       .  S
C2686      C2698   1.494       .  S
C2687      C2688   1.372       .  D
C2687      H2692   1.081       .  S
C2688      C2719   1.513       .  S
C2693      C2694   1.498       .  S
C2693      C2699   1.517       .  S
C2693      C2697   1.496       .  S
C2694      C2695   1.362       .  D
C2694      H2701   1.079       .  S
C2695      C2696   1.573       .  S
C2696      C2700   1.561       .  S
C2696      C2698   1.600       .  S
C2696      H2702   1.109       .  S
C2697      C2698   1.364       .  D
C2697      H2703   1.086       .  S
C2699      C2700   1.370       .  D
C2699      H2704   1.083       .  S
C2700      C2707   1.517       .  S
C2705      C2706   1.540       .  S
C2705      C2711   1.528       .  S
C2705      C2709   1.542       .  S
C2705      C2771   1.541       .  S
C2706      C2707   1.372       .  D
C2706      H2713   1.080       .  S
C2707      C2708   1.540       .  S
C2708      C2712   1.572       .  S
C2708      C2710   1.551       .  S
C2708      H2714   1.110       .  S
C2709      C2710   1.359       .  D
C2709      H2715   1.073       .  S
C2710      C2722   1.488       .  S
C2711      C2712   1.371       .  D
C2711      H2716   1.074       .  S
C2717      C2718   1.512       .  S
C2717      C2721   1.491       .  S
C2718      C2719   1.367       .  D
C2718      H2725   1.083       .  S
C2719      C2720   1.559       .  S
C2720      C2722   1.602       .  S
C2721      C2722   1.363       .  D
C2721      H2727   1.086       .  S
C2723      C2724   1.363   1_545  D
C2723      H2728   1.079       .  S
C2729      C2738   1.520   1_554  S
C2729      C2751   1.523       .  S
C2729      C2759   1.560   1_554  S
C2729      C2907   1.558       .  S
O2730      C2733   1.264       .  A
O2730     Cd2735   2.415       .  S
C2731      C2756   1.500   1_556  S
C2731      O2740   1.270   1_556  A
C2731      O2736   1.257       .  A
O2732      C2738   1.277   1_554  A
O2732     Cd2735   2.474   1_554  S
C2733      C2841   1.468       .  S
C2733      O2741   1.267       .  A
C2734      O2739   1.272       .  A
C2734      O2737   1.259   1_455  A
Cd2735     O2742   2.420       .  S
Cd2735     O2741   2.313       .  S
Cd2735     O2740   2.428   1_556  S
Cd2735     O2736   2.339       .  S
Cd2735     O2739   2.516   1_655  S
Cd2735     O2737   2.388       .  S
C2738      O2742   1.264       .  A
O2743      C2746   1.265       .  A
O2743     Cd2748   2.382       .  S
C2744      C2756   1.507       .  S
C2744      O2753   1.271   1_554  A
C2744      O2749   1.257       .  A
O2745      C2751   1.278   1_556  A
O2745     Cd2748   2.488   1_556  S
C2746      C2965   1.470       .  S
C2746      O2754   1.268       .  A
C2747      O2752   1.274       .  A
C2747      O2750   1.259       .  A
Cd2748     O2755   2.421       .  S
Cd2748     O2754   2.350       .  S
Cd2748     O2753   2.441   1_554  S
Cd2748     O2749   2.366       .  S
Cd2748     O2752   2.512       .  S
Cd2748     O2750   2.390       .  S
C2751      O2755   1.264       .  A
C2757      C2758   1.571       .  S
C2757      C2763   1.539       .  S
C2757      C2761   1.538       .  S
C2757      C2769   1.622       .  S
C2758      C2759   1.378       .  D
C2758      H2765   1.071       .  S
C2759      C2760   1.525       .  S
C2760      C2764   1.522       .  S
C2760      C2762   1.539       .  S
C2760      H2766   1.111   1_556  S
C2761      C2762   1.396       .  D
C2763      C2764   1.357       .  D
C2763      H2768   1.085       .  S
C2769      C2770   1.557       .  S
C2769      C2775   1.536       .  S
C2769      C2773   1.544       .  S
C2770      C2771   1.366       .  D
C2770      H2777   1.076       .  S
C2771      C2772   1.533       .  S
C2772      C2776   1.552       .  S
C2772      C2774   1.573       .  S
C2772      H2778   1.110       .  S
C2773      C2774   1.381       .  D
C2775      C2776   1.387       .  D
C2775      H2780   1.085       .  S
C2776      C2848   1.533       .  S
C2781      C2782   1.532       .  S
C2781      C2787   1.533       .  S
C2781      C2785   1.576       .  S
C2781      C2793   1.622       .  S
C2782      C2783   1.396       .  D
C2782      H2789   1.074       .  S
C2783      C2784   1.531       .  S
C2783      C2866   1.529       .  S
C2784      C2788   1.527       .  S
C2784      C2786   1.517       .  S
C2784      H2790   1.097       .  S
C2785      C2786   1.394       .  D
C2785      H2791   1.073       .  S
C2786      C2880   1.572       .  S
C2787      C2788   1.352       .  D
C2793      C2794   1.549       .  S
C2793      C2799   1.531       .  S
C2793      C2797   1.558       .  S
C2794      C2795   1.382       .  D
C2794      H2801   1.085       .  S
C2795      C2796   1.569       .  S
C2795      C2807   1.511       .  S
C2796      C2800   1.551       .  S
C2796      C2798   1.533       .  S
C2796      H2802   1.110       .  S
C2797      C2798   1.370       .  D
C2799      C2800   1.386       .  D
C2799      H2804   1.086       .  S
C2800      C2819   1.531       .  S
C2805      C2806   1.527       .  S
C2805      C2811   1.541       .  S
C2805      C2809   1.544       .  S
C2806      C2807   1.370       .  D
C2807      C2808   1.571       .  S
C2808      C2812   1.537       .  S
C2808      C2810   1.550       .  S
C2808      H2814   1.110       .  S
C2809      C2810   1.361       .  D
C2809      H2815   1.074       .  S
C2810      C2822   1.489       .  S
C2811      C2812   1.372       .  D
C2811      H2816   1.081       .  S
C2812      C2843   1.516       .  S
C2817      C2854   1.461       .  S
C2817      C2823   1.514       .  S
C2817      C2821   1.491       .  S
C2818      C2819   1.362       .  D
C2818      H2825   1.082       .  S
C2820      C2824   1.560       .  S
C2820      C2822   1.601       .  S
C2820      H2826   1.109       .  S
C2821      C2822   1.363       .  D
C2821      H2827   1.086       .  S
C2823      C2824   1.365       .  D
C2823      H2828   1.082       .  S
C2824      C2831   1.514       .  S
C2829      C2830   1.537       .  S
C2829      C2835   1.525       .  S
C2829      C2833   1.546       .  S
C2830      C2831   1.375       .  D
C2830      H2837   1.081       .  S
C2831      C2832   1.539       .  S
C2832      C2836   1.570       .  S
C2832      C2834   1.555       .  S
C2832      H2838   1.110       .  S
C2833      C2834   1.361       .  D
C2833      H2839   1.071       .  S
C2834      C2846   1.498       .  S
C2835      C2836   1.367       .  D
C2835      H2840   1.076       .  S
C2841      C2842   1.514       .  S
C2841      C2847   1.499       .  S
C2841      C2845   1.494       .  S
C2842      C2843   1.368       .  D
C2842      H2849   1.083       .  S
C2843      C2844   1.563       .  S
C2844      C2848   1.575       .  S
C2844      C2846   1.605       .  S
C2844      H2850   1.109       .  S
C2845      C2846   1.362       .  D
C2845      H2851   1.086       .  S
C2847      C2848   1.361       .  D
C2847      H2852   1.079       .  S
O2853      C2856   1.259       .  A
O2853     Cd2858   2.329       .  S
C2854      O2863   1.267       .  A
C2854      O2859   1.266       .  A
O2855      C2861   1.268       .  A
O2855     Cd2858   2.451       .  S
C2856      C2866   1.507       .  S
C2856      O2864   1.273       .  A
C2857      O2862   1.270       .  A
C2857      O2860   1.260       .  A
Cd2858     O2865   2.379       .  S
Cd2858     O2864   2.361       .  S
Cd2858     O2863   2.269       .  S
Cd2858     O2859   2.410       .  S
Cd2858     O2862   2.523       .  S
Cd2858     O2860   2.420       .  S
C2861      O2865   1.271       .  A
C2866      C2870   1.482       .  S
C2866      C2886   1.551       .  S
O2867      C2870   1.264       .  A
O2867     Cd2872   2.411       .  S
C2868      C2941   1.447       .  S
C2868      O2877   1.265       .  A
C2868      O2873   1.266       .  A
O2869      C2875   1.271       .  A
O2869     Cd2872   2.444       .  S
C2870      O2878   1.271       .  A
C2871      O2876   1.268       .  A
C2871      O2874   1.262       .  A
Cd2872     O2879   2.477       .  S
Cd2872     O2878   2.347       .  S
Cd2872     O2877   2.277       .  S
Cd2872     O2873   2.339       .  S
Cd2872     O2876   2.350       .  S
Cd2872     O2874   2.389       .  S
C2875      O2879   1.264       .  A
C2880      C2883   1.601       .  S
C2881      C2882   1.521       .  S
C2881      C2887   1.507       .  S
C2881      C2885   1.484       .  S
C2882      C2883   1.381       .  D
C2882      H2889   1.080       .  S
C2883      C2884   1.575       .  S
C2884      C2888   1.611       .  S
C2884      C2886   1.580       .  S
C2884      H2890   1.103       .  S
C2885      C2886   1.372       .  D
C2885      H2891   1.086       .  S
C2887      C2888   1.367       .  D
C2887      H2892   1.085       .  S
C2888      C2893   1.589       .  S
C2893      C2894   1.537       .  S
C2893      C2899   1.524       .  S
C2893      C2897   1.561       .  S
C2894      C2895   1.377       .  D
C2894      H2901   1.086       .  S
C2895      C2896   1.577       .  S
C2895      C2931   1.509       .  S
C2896      C2900   1.550       .  S
C2896      C2898   1.536       .  S
C2896      H2902   1.110       .  S
C2897      C2898   1.368       .  D
C2897      H2903   1.079       .  S
C2899      C2900   1.396       .  D
C2899      H2904   1.083       .  S
C2900      C2943   1.534       .  S
C2905      C2906   1.572       .  S
C2905      C2911   1.534       .  S
C2905      C2909   1.543       .  S
C2905      C2917   1.612       .  S
C2906      C2907   1.379       .  D
C2906      H2913   1.072       .  S
C2907      C2908   1.523       .  S
C2908      C2912   1.515       .  S
C2908      C2910   1.534       .  S
C2908      H2914   1.111   1_554  S
C2909      C2910   1.390       .  D
C2911      C2912   1.359       .  D
C2917      C2918   1.560       .  S
C2917      C2923   1.528       .  S
C2917      C2921   1.539       .  S
C2918      C2919   1.366       .  D
C2919      C2920   1.523       .  S
C2920      C2924   1.546       .  S
C2920      C2922   1.570       .  S
C2920      H2926   1.110       .  S
C2921      C2922   1.391       .  D
C2923      C2924   1.376       .  D
C2923      H2928   1.085       .  S
C2924      C2972   1.527       .  S
C2929      C2930   1.526       .  S
C2929      C2935   1.533       .  S
C2929      C2933   1.535       .  S
C2930      C2931   1.370       .  D
C2930      H2937   1.076       .  S
C2931      C2932   1.572       .  S
C2932      C2936   1.544       .  S
C2932      C2934   1.565       .  S
C2932      H2938   1.109       .  S
C2933      C2934   1.353       .  D
C2933      H2939   1.074       .  S
C2934      C2946   1.496       .  S
C2935      C2936   1.375       .  D
C2935      H2940   1.079       .  S
C2936      C2967   1.522       .  S
C2941      C2942   1.493       .  S
C2941      C2947   1.517       .  S
C2941      C2945   1.496       .  S
C2944      C2948   1.558       .  S
C2944      C2946   1.601       .  S
C2944      H2950   1.110       .  S
C2945      C2946   1.354       .  D
C2945      H2951   1.085       .  S
C2947      C2948   1.360       .  D
C2947      H2952   1.080       .  S
C2948      C2958   1.481       .  S
C2953      C2954   1.539       .  S
C2953      C2959   1.527       .  S
C2953      C2957   1.554   1_565  S
C2954      C2955   1.384       .  D
C2954      H2961   1.081       .  S
C2955      C2956   1.533       .  S
C2955      C2970   1.526       .  S
C2956      C2960   1.560       .  S
C2956      C2958   1.536       .  S
C2956      H2962   1.111       .  S
C2957      C2958   1.366   1_545  D
C2959      C2960   1.369       .  D
C2965      C2966   1.504       .  S
C2965      C2971   1.505       .  S
C2965      C2969   1.505       .  S
C2966      C2967   1.373       .  D
C2966      H2973   1.081       .  S
C2967      C2968   1.583       .  S
C2968      C2972   1.569       .  S
C2968      C2970   1.593       .  S
C2968      H2974   1.110       .  S
C2969      C2970   1.370       .  D
C2969      H2975   1.087       .  S
C2971      C2972   1.363       .  D
C2971      H2976   1.081       .  S
