geometry optimzed in LAMMPS
_audit_creation_date              2020-11-30 
_audit_creation_method            'lammps2cif' 
_symmetry_space_group_name_H-M    'P1' 
_symmetry_Int_Tables_number       1 
_symmetry_cell_setting            triclinic 
loop_ 
_symmetry_equiv_pos_as_xyz 
  x,y,z 
_cell_length_a                    38.53601126 
_cell_length_b                    38.87661265884448 
_cell_length_c                    79.80404067470192 
_cell_angle_alpha                 89.96777429749606 
_cell_angle_beta                  90.09347770199476 
_cell_angle_gamma                 90.07693612457331 
loop_ 
_atom_site_label 
_atom_site_type_symbol 
_atom_site_fract_x 
_atom_site_fract_y 
_atom_site_fract_z 
_atom_site_charge 
N1          N  0.73993030  0.79871756  0.74515894    -0.36600
N2          N  0.73559492  0.74763158  0.77183575    -0.57200
N3          N  0.72982382  0.69341849  0.74695099    -0.36600
N4          N  0.73770532  0.74439525  0.72026993    -0.57200
C5          C  0.74768476  0.81867273  0.75853272     0.27000
C6          C  0.74788081  0.81690612  0.73122506     0.27000
C7          C  0.73439982  0.67432048  0.76097372     0.27000
C8          C  0.73616804  0.67266657  0.73370412     0.27000
C9          C  0.73396993  0.77646898  0.78124819     0.35600
C10         C  0.72865197  0.72098692  0.78220983     0.35600
C11         C  0.73568960  0.77168867  0.70983843     0.35600
C12         C  0.73175319  0.71623193  0.71080379     0.35600
C13         C  0.76034871  0.85012301  0.75302146    -0.21900
C14         C  0.76039320  0.84903720  0.73578919    -0.21900
C15         C  0.74267866  0.64083114  0.75654124    -0.21900
C16         C  0.74391552  0.63981899  0.73936538    -0.21900
C17         C  0.72614588  0.76804822  0.79770678    -0.23000
C18         C  0.72285786  0.73290543  0.79831654    -0.23000
C19         C  0.72867802  0.76079678  0.69364084    -0.23000
C20         C  0.72630558  0.72560111  0.69424616    -0.23000
C21         C  0.74186761  0.81005057  0.77553739    -0.18300
C22         C  0.74217139  0.80611461  0.71451326    -0.18300
C23         C  0.73403855  0.68203628  0.71660498    -0.18300
C24         C  0.73051141  0.68590307  0.77768099    -0.18300
H25         H  0.76833440  0.87179705  0.76061861     0.14600
H26         H  0.76845525  0.86968846  0.72756166     0.14600
H27         H  0.74752399  0.61928757  0.76480760     0.14600
H28         H  0.74981765  0.61733982  0.73190500     0.14600
H29         H  0.72367212  0.78536048  0.80825335     0.12900
H30         H  0.71745050  0.71781371  0.80941155     0.12900
H31         H  0.72611899  0.77650317  0.68250444     0.12900
H32         H  0.72152762  0.70878806  0.68368176     0.12900
H33         H  0.72626572  0.77575444  0.74548297     0.26100
H34         H  0.71986049  0.71816309  0.74640025     0.26100
N35         N  0.25089209  0.79848861  0.75077605    -0.36600
N36         N  0.25350692  0.74324325  0.72612736    -0.57200
N37         N  0.25030703  0.69287668  0.75287714    -0.36600
N38         N  0.24433790  0.74827906  0.77745554    -0.57200
C39         C  0.24635817  0.81661410  0.73645947     0.27000
C40         C  0.24215501  0.81930808  0.76369359     0.27000
C41         C  0.24421636  0.67253795  0.73940378     0.27000
C42         C  0.24027697  0.67511877  0.76663384     0.27000
C43         C  0.26067621  0.77021968  0.71601184     0.35600
C44         C  0.26004789  0.71450870  0.71714087     0.35600
C45         C  0.24827327  0.77690110  0.78689167     0.35600
C46         C  0.24779737  0.72126985  0.78798778     0.35600
C47         C  0.23496792  0.84950137  0.74035923    -0.21900
C48         C  0.23229629  0.85117309  0.75753778    -0.21900
C49         C  0.23032315  0.64145345  0.74472120    -0.21900
C50         C  0.22817595  0.64296062  0.76190681    -0.21900
C51         C  0.27174863  0.75858450  0.70050099    -0.23000
C52         C  0.27158256  0.72330802  0.70125304    -0.23000
C53         C  0.25382474  0.76801256  0.80350507    -0.23000
C54         C  0.25353556  0.73275862  0.80419827    -0.23000
C55         C  0.25456414  0.80506956  0.72010068    -0.18300
C56         C  0.24489491  0.81096995  0.78091539    -0.18300
C57         C  0.24334587  0.68645981  0.78340817    -0.18300
C58         C  0.25251285  0.68061340  0.72254381    -0.18300
H59         H  0.22961598  0.87036791  0.73176008     0.14600
H60         H  0.22440580  0.87346331  0.76469527     0.14600
H61         H  0.22285578  0.61972744  0.73704286     0.14600
H62         H  0.21867398  0.62270114  0.77000594     0.14600
H63         H  0.27867956  0.77387811  0.68967317     0.12900
H64         H  0.27844965  0.70612465  0.69112556     0.12900
H65         H  0.25739971  0.78513024  0.81406060     0.12900
H66         H  0.25671771  0.71735947  0.81539785     0.12900
H67         H  0.26312468  0.77480859  0.75177222     0.26100
H68         H  0.26399894  0.71591360  0.75290107     0.26100
N69         N  0.05835086  0.49790747  0.50046275    -0.36600
N70         N  0.00256405  0.49545181  0.52478994    -0.57200
N71         N  0.95228773  0.50222424  0.49795803    -0.36600
N72         N  0.00773973  0.50212094  0.47346340    -0.57200
C73         C  0.07567679  0.48672044  0.51420342     0.27000
C74         C  0.07846488  0.49108681  0.48698725     0.27000
C75         C  0.93133203  0.49407403  0.51094357     0.27000
C76         C  0.93408461  0.49652692  0.48372162     0.27000
C77         C  0.02984443  0.49792987  0.53535507     0.35600
C78         C  0.97391337  0.50158162  0.53403583     0.35600
C79         C  0.03695106  0.50894091  0.46472950     0.35600
C80         C  0.98078339  0.51012142  0.46333463     0.35600
C81         C  0.10729456  0.47294133  0.50943683    -0.21900
C82         C  0.10902895  0.47560109  0.49226147    -0.21900
C83         C  0.89934954  0.48332564  0.50492800    -0.21900
C84         C  0.90108059  0.48484222  0.48773369    -0.21900
C85         C  0.01847542  0.50556668  0.55140309    -0.23000
C86         C  0.98297491  0.50791439  0.55055916    -0.23000
C87         C  0.02847125  0.52164128  0.44899447    -0.23000
C88         C  0.99283981  0.52194532  0.44803783    -0.23000
C89         C  0.06448833  0.49039898  0.53098469    -0.18300
C90         C  0.07083469  0.50036074  0.47019251    -0.18300
C91         C  0.94559777  0.50420616  0.46732421    -0.18300
C92         C  0.93961633  0.49825035  0.52806253    -0.18300
H93         H  0.12715216  0.46227331  0.51750852     0.14600
H94         H  0.13049315  0.46723531  0.48455029     0.14600
H95         H  0.87694849  0.47557690  0.51217927     0.14600
H96         H  0.88015282  0.47862866  0.47919471     0.14600
H97         H  0.03407237  0.50851251  0.56260405     0.12900
H98         H  0.96575684  0.51286865  0.56098209     0.12900
H99         H  0.04609156  0.52886222  0.43904638     0.12900
H100        H  0.97757818  0.52959723  0.43726932     0.12900
H101        H  0.03597891  0.51280720  0.50043523     0.26100
H102        H  0.97597078  0.51490602  0.49883222     0.26100
N103        N  0.79756231  0.51035913  0.59907617    -0.27300
N104        N  0.78404738  0.48241597  0.59221258    -0.35200
C105        C  0.80202600  0.47476925  0.57825611     0.01000
C106        C  0.82768841  0.49935851  0.57612408     0.07100
C107        C  0.82420348  0.52136322  0.58962020    -0.06000
H108        H  0.79722884  0.45256575  0.57041629     0.07700
H109        H  0.84080441  0.54287560  0.59277699     0.08900
Cu110      Cu  0.74303248  0.45481405  0.60264695     0.44200
Cu111      Cu  0.78169399  0.53070825  0.62177263     0.42000
Cu112      Cu  0.71829183  0.48085890  0.64446158     0.43900
N113        N  0.70402147  0.43081540  0.61643948    -0.34700
N114        N  0.69584139  0.43988431  0.63190330    -0.28900
C115        C  0.67012753  0.41949577  0.63748173    -0.05000
C116        C  0.66127647  0.39675828  0.62486918     0.07200
C117        C  0.68343161  0.40450163  0.61172537     0.01000
H118        H  0.65816495  0.42161343  0.64969347     0.08600
H119        H  0.68462815  0.39186385  0.59966757     0.07700
N120        N  0.74030579  0.52567686  0.65359437    -0.36100
N121        N  0.76317493  0.54421395  0.64519550    -0.28300
C122        C  0.77028591  0.57296262  0.65390201    -0.03600
C123        C  0.75113118  0.57241112  0.66857378     0.05000
C124        C  0.73225099  0.54211706  0.66787075     0.03100
H125        H  0.78675350  0.59352658  0.64941009     0.08200
H126        H  0.71318716  0.53318973  0.67681634     0.07100
N127        N  0.18239596  0.48585109  0.61167001    -0.27300
N128        N  0.19754327  0.45836040  0.60522477    -0.35200
C129        C  0.18090986  0.44943103  0.59102267     0.01000
C130        C  0.15421776  0.47253751  0.58835463     0.07100
C131        C  0.15606424  0.49540101  0.60160011    -0.06000
H132        H  0.18892605  0.42891166  0.58274149     0.07700
H133        H  0.14025631  0.51806198  0.60343875     0.08900
Cu134      Cu  0.24310517  0.43716287  0.61463530     0.44200
Cu135      Cu  0.20045936  0.51146743  0.63284653     0.42000
Cu136      Cu  0.28697546  0.48628853  0.64655176     0.43900
N137        N  0.29052055  0.42277214  0.62495779    -0.34700
N138        N  0.30665353  0.44063032  0.63672386    -0.28900
C139        C  0.33638764  0.42439925  0.64079183    -0.05000
C140        C  0.33942630  0.39522686  0.63090575     0.07200
C141        C  0.30966543  0.39493569  0.62113108     0.01000
H142        H  0.35466445  0.43335269  0.65013064     0.08600
H143        H  0.30218519  0.37565631  0.61204616     0.07700
N144        N  0.26016308  0.52866265  0.65587186    -0.36100
N145        N  0.22795127  0.53650782  0.65169983    -0.28300
C146        C  0.21739775  0.56335703  0.66102953    -0.03600
C147        C  0.24460425  0.57380692  0.67133347     0.05000
C148        C  0.27116568  0.55083261  0.66766354     0.03100
H149        H  0.19135425  0.57344950  0.66058535     0.08200
H150        H  0.29670716  0.54993906  0.67327358     0.07100
N151        N  0.05970083  0.99677639  0.49979830    -0.36600
N152        N  0.00979618  0.00499415  0.52660039    -0.57200
N153        N  0.95414901  0.00436917  0.50214376    -0.36600
N154        N  0.00400235  0.99276546  0.47540341    -0.57200
C155        C  0.07988634  0.99021055  0.51331538     0.27000
C156        C  0.07706203  0.98562604  0.48613574     0.27000
C157        C  0.93610651  0.00083048  0.51657002     0.27000
C158        C  0.93290245  0.99468709  0.48948949     0.27000
C159        C  0.03938589  0.01162099  0.53509914     0.35600
C160        C  0.98343364  0.01593122  0.53636068     0.35600
C161        C  0.03118316  0.99527450  0.46479416     0.35600
C162        C  0.97521719  0.99818761  0.46609854     0.35600
C163        C  0.11033468  0.97442648  0.50814282    -0.21900
C164        C  0.10868552  0.97187233  0.49095939    -0.21900
C165        C  0.90300852  0.98870202  0.51300944    -0.21900
C166        C  0.90089602  0.98515286  0.49588940    -0.21900
C167        C  0.03180652  0.02713592  0.55030258    -0.23000
C168        C  0.99627818  0.02969954  0.55113807    -0.23000
C169        C  0.01959634  0.00166542  0.44864361    -0.23000
C170        C  0.98406617  0.00341966  0.44946289    -0.23000
C171        C  0.07269034  0.00068803  0.52995697    -0.18300
C172        C  0.06615625  0.98994502  0.46936825    -0.18300
C173        C  0.94096913  0.99645527  0.47226079    -0.18300
C174        C  0.94797252  0.01063374  0.53267831    -0.18300
H175        H  0.13186868  0.96623698  0.51589034     0.14600
H176        H  0.12858590  0.96132168  0.48291037     0.14600
H177        H  0.88227722  0.98354180  0.52179450     0.14600
H178        H  0.87832346  0.97667166  0.48893140     0.14600
H179        H  0.04992100  0.03495730  0.55995746     0.12900
H180        H  0.98156571  0.03997049  0.56153205     0.12900
H181        H  0.03508467  0.00440443  0.43742010     0.12900
H182        H  0.96672894  0.00783424  0.43899855     0.12900
H183        H  0.03754763  0.01199696  0.49963495     0.26100
H184        H  0.97799475  0.01660558  0.50081291     0.26100
N185        N  0.25170035  0.93819473  0.64431931    -0.27300
N186        N  0.27503377  0.95447390  0.65353454    -0.35200
C187        C  0.28019120  0.93670010  0.66777522     0.01000
C188        C  0.25879828  0.90802893  0.66765961     0.07100
C189        C  0.24133981  0.90966744  0.65247863    -0.06000
H190        H  0.29799663  0.94429507  0.67759821     0.07700
H191        H  0.22284982  0.89130029  0.64756423     0.08900
Cu192      Cu  0.29844594  0.00048228  0.64652428     0.44200
Cu193      Cu  0.23425142  0.95639768  0.62138279     0.42000
Cu194      Cu  0.26307074  0.04260174  0.60999195     0.43900
N195        N  0.31777982  0.04641022  0.63695096    -0.34700
N196        N  0.30464031  0.06195750  0.62365178    -0.28900
C197        C  0.32343414  0.09036020  0.62037556    -0.05000
C198        C  0.34999724  0.09269685  0.63205402     0.07200
C199        C  0.34524095  0.06456385  0.64250342     0.01000
H200        H  0.31862534  0.10760783  0.60998625     0.08600
H201        H  0.36042413  0.05778238  0.65341780     0.07700
N202        N  0.22551348  0.01511959  0.59694068    -0.36100
N203        N  0.21637683  0.98324866  0.60065114    -0.28300
C204        C  0.19181067  0.97284784  0.58982368    -0.03600
C205        C  0.18484431  0.99942085  0.57871166     0.01800
C206        C  0.20659557  0.02596261  0.58377885     0.03100
H207        H  0.17925449  0.94797122  0.59034020     0.08200
H208        H  0.20763116  0.05183817  0.57886074     0.07100
N209        N  0.80047579  0.99100267  0.60138712    -0.27300
N210        N  0.79429679  0.02383911  0.59841726    -0.35200
C211        C  0.81839894  0.03572618  0.58770909     0.01000
C212        C  0.84097323  0.00910225  0.58370236     0.07100
C213        C  0.82819697  0.98098573  0.59246314    -0.06000
H214        H  0.81935038  0.06194166  0.58319254     0.07700
H215        H  0.83755703  0.95484221  0.59221976     0.08900
Cu216      Cu  0.75276147  0.05054832  0.60876678     0.44200
Cu217      Cu  0.77380717  0.96213226  0.61886556     0.42000
Cu218      Cu  0.71524530  0.01028024  0.64521797     0.43900
N219        N  0.70900117  0.06937381  0.62094910    -0.34700
N220        N  0.69591113  0.05492976  0.63454579    -0.28900
C221        C  0.66752570  0.07244300  0.63929118    -0.05000
C222        C  0.66205748  0.09893974  0.62801710     0.07200
C223        C  0.68907029  0.09640568  0.61662154     0.01000
H224        H  0.65151331  0.06584237  0.64994584     0.08600
H225        H  0.69401891  0.11305053  0.60602343     0.07700
N226        N  0.73372636  0.96173140  0.65114037    -0.36100
N227        N  0.75378085  0.94356157  0.64107914    -0.28300
C228        C  0.76072854  0.91309980  0.64828158    -0.03600
C229        C  0.74473214  0.91218166  0.66378943     0.05000
C230        C  0.72747199  0.94331572  0.66507181     0.03100
H231        H  0.77616889  0.89315680  0.64253060     0.08200
H232        H  0.71177439  0.95208781  0.67545006     0.07100
N233        N  0.55262804  0.49725413  0.00167518    -0.36600
N234        N  0.49846541  0.49326288  0.97664886    -0.57200
N235        N  0.44649201  0.50430348  0.00275677    -0.36600
N236        N  0.50054758  0.50514695  0.02786432    -0.57200
C237        C  0.57120431  0.48685228  0.98821147     0.27000
C238        C  0.57191894  0.49076448  0.01550910     0.27000
C239        C  0.42590395  0.49491297  0.98982110     0.27000
C240        C  0.42711066  0.50244672  0.01685264     0.27000
C241        C  0.52610961  0.49527585  0.96627602     0.35600
C242        C  0.46996689  0.49704932  0.96694209     0.35600
C243        C  0.52953839  0.51049441  0.03701367     0.35600
C244        C  0.47365604  0.51553520  0.03744523     0.35600
C245        C  0.60285718  0.47389411  0.99352994    -0.21900
C246        C  0.60314696  0.47598950  0.01076089    -0.21900
C247        C  0.39288866  0.48746583  0.99572527    -0.21900
C248        C  0.39366513  0.49219012  0.01280173    -0.21900
C249        C  0.51505698  0.49968287  0.94987243    -0.23000
C250        C  0.47949212  0.50078660  0.95029634    -0.23000
C251        C  0.52098982  0.52437862  0.05247865    -0.23000
C252        C  0.48553937  0.52742599  0.05277183    -0.23000
C253        C  0.56104956  0.49077885  0.97125541    -0.18300
C254        C  0.56328847  0.50048515  0.03212189    -0.18300
C255        C  0.43839985  0.51136742  0.03313874    -0.18300
C256        C  0.43537397  0.49534573  0.97272348    -0.18300
H257        H  0.62370849  0.46412023  0.98582904     0.14600
H258        H  0.62434968  0.46831815  0.01884308     0.14600
H259        H  0.37043542  0.47979493  0.98846153     0.14600
H260        H  0.37197621  0.48876765  0.02124364     0.14600
H261        H  0.53089100  0.50140538  0.93871606     0.12900
H262        H  0.46257692  0.50372659  0.93955094     0.12900
H263        H  0.53840859  0.53114466  0.06260748     0.12900
H264        H  0.47022118  0.53677947  0.06316880     0.12900
H265        H  0.53012313  0.51190378  0.00127500     0.26100
H266        H  0.47103397  0.51514675  0.00175638     0.26100
N267        N  0.68826673  0.49817785  0.89332808    -0.27300
N268        N  0.70583165  0.47293496  0.90045279    -0.35200
C269        C  0.69036628  0.46449423  0.91501038     0.01000
C270        C  0.66131557  0.48514302  0.91707551     0.07100
C271        C  0.66113002  0.50642441  0.90312356    -0.06000
H272        H  0.70006056  0.44523230  0.92359594     0.07700
H273        H  0.64256657  0.52646005  0.90028525     0.08900
Cu274      Cu  0.75013312  0.45170558  0.88977899     0.44200
Cu275      Cu  0.70319611  0.52093721  0.87091618     0.42000
Cu276      Cu  0.78417841  0.49247192  0.85182323     0.43900
N277        N  0.79353478  0.43442470  0.87680311    -0.34700
N278        N  0.80657922  0.44928821  0.86329109    -0.28900
C279        C  0.83489355  0.43152192  0.85842226    -0.05000
C280        C  0.83958495  0.40374786  0.86921252     0.07200
C281        C  0.81289515  0.40683896  0.88074444     0.01000
H282        H  0.85114554  0.43883679  0.84798585     0.08600
H283        H  0.80770966  0.39004638  0.89126211     0.07700
N284        N  0.75387737  0.53311768  0.84262450    -0.36100
N285        N  0.72444603  0.54309896  0.84958112    -0.28300
C286        C  0.71172850  0.57016095  0.84103433    -0.03600
C287        C  0.73382548  0.57754156  0.82781027     0.05000
C288        C  0.76043663  0.55358686  0.82936869     0.03100
H289        H  0.68879031  0.58419565  0.84470821     0.08200
H290        H  0.78309809  0.55131626  0.82146510     0.07100
N291        N  0.25254199  0.55405879  0.85878775    -0.27300
N292        N  0.22317095  0.54193057  0.85255809    -0.35200
C293        C  0.21443720  0.56046613  0.83895742     0.01000
C294        C  0.23982979  0.58506257  0.83635486     0.07100
C295        C  0.26342501  0.58046665  0.84925008    -0.06000
H296        H  0.19174104  0.55582188  0.83128333     0.07700
H297        H  0.28676642  0.59522081  0.85156056     0.08900
Cu298      Cu  0.19748978  0.49944127  0.86221849     0.44200
Cu299      Cu  0.27683129  0.53360189  0.87971756     0.42000
Cu300      Cu  0.23662465  0.45734533  0.89783950     0.43900
N301        N  0.17766301  0.45521352  0.87315915    -0.34700
N302        N  0.19168142  0.43995352  0.88633730    -0.28900
C303        C  0.17298767  0.41174332  0.89013673    -0.05000
C304        C  0.14629628  0.40891128  0.87861646     0.07200
C305        C  0.14990369  0.43696961  0.86811048     0.01000
H306        H  0.17900860  0.39405946  0.90019988     0.08600
H307        H  0.13377063  0.44344866  0.85746315     0.07700
N308        N  0.28140019  0.48007468  0.90703767    -0.36100
N309        N  0.29594098  0.50781130  0.90049910    -0.28300
C310        C  0.32423031  0.51599987  0.90952841    -0.03600
C311        C  0.32792055  0.49207658  0.92226020     0.05000
C312        C  0.30004740  0.46990713  0.92039475     0.03100
H313        H  0.34097138  0.53773603  0.90696984     0.08200
H314        H  0.29321843  0.44843923  0.92835960     0.07100
N315        N  0.75806864  0.19552595  0.25314547    -0.36600
N316        N  0.75151470  0.25212164  0.27666008    -0.57200
N317        N  0.76384691  0.30045164  0.24953011    -0.36600
N318        N  0.76817083  0.24402059  0.22593919    -0.57200
C319        C  0.74571087  0.17881912  0.26678082     0.27000
C320        C  0.75372773  0.17448632  0.23979047     0.27000
C321        C  0.75260287  0.32169807  0.26179070     0.27000
C322        C  0.76000644  0.31732265  0.23480826     0.27000
C323        C  0.75335287  0.22570710  0.28762547     0.35600
C324        C  0.75672816  0.28108762  0.28566143     0.35600
C325        C  0.77548938  0.21448586  0.21776324     0.35600
C326        C  0.77876250  0.27010957  0.21597074     0.35600
C327        C  0.73383021  0.14656364  0.26212527    -0.21900
C328        C  0.73886869  0.14379929  0.24510785    -0.21900
C329        C  0.74167978  0.35250650  0.25486220    -0.21900
C330        C  0.74597840  0.34963090  0.23780998    -0.21900
C331        C  0.75943799  0.23794539  0.30367550    -0.23000
C332        C  0.76160180  0.27310296  0.30242623    -0.23000
C333        C  0.79088148  0.22186768  0.20247726    -0.23000
C334        C  0.79355808  0.25708556  0.20148776    -0.23000
C335        C  0.74751151  0.19090007  0.28347564    -0.18300
C336        C  0.76494593  0.18141700  0.22319331    -0.18300
C337        C  0.77119073  0.30520728  0.21894499    -0.18300
C338        C  0.75417600  0.31470134  0.27913048    -0.18300
H339        H  0.72314524  0.12684860  0.27019852     0.14600
H340        H  0.73290921  0.12135308  0.23762720     0.14600
H341        H  0.73176411  0.37477737  0.26141956     0.14600
H342        H  0.73988042  0.36935602  0.22870193     0.14600
H343        H  0.76170804  0.22312779  0.31511010     0.12900
H344        H  0.76575831  0.29078927  0.31270768     0.12900
H345        H  0.79869447  0.20390069  0.19285742     0.12900
H346        H  0.80370923  0.27147737  0.19096461     0.12900
H347        H  0.77230637  0.21822097  0.25330335     0.26100
H348        H  0.77725181  0.27754856  0.25134269     0.26100
N349        N  0.44916292  0.01240675  0.99754135    -0.36600
N350        N  0.50154833  0.00924130  0.02351754    -0.57200
N351        N  0.55512297  0.00748149  0.99780209    -0.36600
N352        N  0.50276724  0.01315944  0.97186254    -0.57200
C353        C  0.42985617  0.01929603  0.01129818     0.27000
C354        C  0.43053387  0.02245638  0.98400492     0.27000
C355        C  0.57472288  0.01309873  0.01162201     0.27000
C356        C  0.57542271  0.01360420  0.98429829     0.27000
C357        C  0.47311380  0.00229301  0.03283489     0.35600
C358        C  0.52936373  0.00120924  0.03307374     0.35600
C359        C  0.47442455  0.00995308  0.96198591     0.35600
C360        C  0.53054355  0.00606754  0.96213270     0.35600
C361        C  0.39862982  0.03395422  0.00643123    -0.21900
C362        C  0.39900997  0.03582745  0.98920052    -0.21900
C363        C  0.60796602  0.02262215  0.00682268    -0.21900
C364        C  0.60843616  0.02280298  0.98959107    -0.21900
C365        C  0.48291996  0.98961711  0.04837325    -0.23000
C366        C  0.51857838  0.98938963  0.04860865    -0.23000
C367        C  0.48424739  0.00119885  0.94583981    -0.23000
C368        C  0.51982510  0.99874605  0.94593138    -0.23000
C369        C  0.43870742  0.01024952  0.02797564    -0.18300
C370        C  0.44005703  0.01706556  0.96709729    -0.18300
C371        C  0.56550681  0.00879888  0.96738220    -0.18300
C372        C  0.56427038  0.00671897  0.02833550    -0.18300
H373        H  0.37749660  0.04194832  0.01444428     0.14600
H374        H  0.37819471  0.04542001  0.98137532     0.14600
H375        H  0.62994610  0.02800744  0.01486115     0.14600
H376        H  0.63075543  0.02855320  0.98186569     0.14600
H377        H  0.46617231  0.98218698  0.05863111     0.12900
H378        H  0.53467665  0.98160184  0.05906073     0.12900
H379        H  0.46756812  0.99741319  0.93507060     0.12900
H380        H  0.53595963  0.99278736  0.93523439     0.12900
H381        H  0.47148075  0.99767402  0.99727854     0.26100
H382        H  0.53090502  0.99608455  0.99758148     0.26100
N383        N  0.30525388  0.00336595  0.89243105    -0.27300
N384        N  0.29106936  0.03181686  0.89836838    -0.35200
C385        C  0.30962075  0.04287126  0.91162348     0.01000
C386        C  0.33696664  0.02042028  0.91419248     0.07100
C387        C  0.33315382  0.99551352  0.90187610    -0.06000
H388        H  0.30287091  0.06492404  0.91920096     0.07700
H389        H  0.34927946  0.97306932  0.90005582     0.08900
Cu390      Cu  0.24588092  0.05337137  0.88893102     0.44200
Cu391      Cu  0.28488692  0.97565812  0.87218549     0.42000
Cu392      Cu  0.20231823  0.00650314  0.85593261     0.43900
N393        N  0.20009348  0.06968071  0.87780989    -0.34700
N394        N  0.18399592  0.05259363  0.86574946    -0.28900
C395        C  0.15523449  0.07002414  0.86128677    -0.05000
C396        C  0.15333859  0.09939925  0.87100592     0.07200
C397        C  0.18203772  0.09834583  0.88136570     0.01000
H398        H  0.13706228  0.06189536  0.85172568     0.08600
H399        H  0.18923448  0.11698582  0.89081698     0.07700
N400        N  0.22708179  0.96251370  0.84721838    -0.36100
N401        N  0.25755738  0.95165651  0.85273463    -0.28300
C402        C  0.26696332  0.92377759  0.84378912    -0.03600
C403        C  0.24094216  0.91643553  0.83228140     0.05000
C404        C  0.21623180  0.94172959  0.83478043     0.03100
H405        H  0.29106222  0.90993898  0.84546520     0.08200
H406        H  0.19264113  0.94556306  0.82766160     0.07100
N407        N  0.74096674  0.94401481  0.84992439    -0.27300
N408        N  0.77142844  0.95471139  0.84431717    -0.35200
C409        C  0.78047409  0.93558487  0.83098546     0.01000
C410        C  0.75457930  0.91162502  0.82806256     0.07100
C411        C  0.72980110  0.91794458  0.84021761    -0.06000
H412        H  0.80366251  0.93966181  0.82362507     0.07700
H413        H  0.70540768  0.90456472  0.84187737     0.08900
Cu414      Cu  0.79855903  0.99657424  0.85391041     0.44200
Cu415      Cu  0.71572476  0.96500267  0.87052526     0.42000
Cu416      Cu  0.75883028  0.03857861  0.88896738     0.43900
N417        N  0.81688721  0.04269576  0.86371415    -0.34700
N418        N  0.80183817  0.05830432  0.87647500    -0.28900
C419        C  0.81893601  0.08773637  0.87972233    -0.05000
C420        C  0.84599239  0.09113848  0.86838766     0.07200
C421        C  0.84403233  0.06180448  0.85851786     0.01000
H422        H  0.81222872  0.10538097  0.88967999     0.08600
H423        H  0.86148304  0.05438209  0.84856311     0.07700
N424        N  0.71532076  0.01512114  0.89934032    -0.36100
N425        N  0.69924020  0.98855210  0.89249025    -0.28300
C426        C  0.67202205  0.97978674  0.90214845    -0.03600
C427        C  0.67111014  0.00161955  0.91587802     0.05000
C428        C  0.69877634  0.02390919  0.91354158     0.03100
H429        H  0.65388500  0.95942039  0.89918363     0.08200
H430        H  0.70636664  0.04499747  0.92159858     0.07100
N431        N  0.25217982  0.19847267  0.24934632    -0.36600
N432        N  0.24958537  0.25161061  0.27539281    -0.57200
N433        N  0.24477313  0.30414109  0.24946417    -0.36600
N434        N  0.24335666  0.25105357  0.22355175    -0.57200
C435        C  0.24950907  0.17851569  0.26321411     0.27000
C436        C  0.24557962  0.17824934  0.23586095     0.27000
C437        C  0.23987723  0.32389909  0.26321962     0.27000
C438        C  0.23713848  0.32362904  0.23590565     0.27000
C439        C  0.25666135  0.22407759  0.28519157     0.35600
C440        C  0.25281329  0.27982206  0.28521916     0.35600
C441        C  0.24777308  0.22339698  0.21349729     0.35600
C442        C  0.24531075  0.27915536  0.21358719     0.35600
C443        C  0.24190568  0.14503277  0.25844313    -0.21900
C444        C  0.23949724  0.14485142  0.24124492    -0.21900
C445        C  0.22919544  0.35645387  0.25831801    -0.21900
C446        C  0.22743658  0.35627430  0.24110746    -0.21900
C447        C  0.26384207  0.23483523  0.30139641    -0.23000
C448        C  0.26140899  0.27008962  0.30141217    -0.23000
C449        C  0.25179504  0.23402026  0.19702016    -0.23000
C450        C  0.25058880  0.26927612  0.19710385    -0.23000
C451        C  0.25470767  0.18921274  0.28005291    -0.18300
C452        C  0.24644905  0.18860148  0.21878366    -0.18300
C453        C  0.24073660  0.31358442  0.21893005    -0.18300
C454        C  0.24696254  0.31420547  0.28000035    -0.18300
H455        H  0.23845751  0.12290934  0.26651299     0.14600
H456        H  0.23402767  0.12250599  0.23360381     0.14600
H457        H  0.22369406  0.37827708  0.26629460     0.14600
H458        H  0.22025575  0.37791160  0.23330153     0.14600
H459        H  0.26994259  0.21891896  0.31213374     0.12900
H460        H  0.26534109  0.28664031  0.31215229     0.12900
H461        H  0.25518845  0.21809647  0.18603212     0.12900
H462        H  0.25285804  0.28571780  0.18621104     0.12900
H463        H  0.26130621  0.22354225  0.24903168     0.26100
H464        H  0.25664716  0.28027503  0.24921824     0.26100
N465        N  0.29262674  0.01852838  0.09857828    -0.27300
N466        N  0.28414790  0.98697342  0.09400117    -0.35200
C467        C  0.30503272  0.97695556  0.08145031     0.01000
C468        C  0.32724747  0.00385184  0.07734630     0.07100
C469        C  0.31865177  0.02966232  0.08871058    -0.06000
H470        H  0.30447613  0.95138688  0.07622680     0.07700
H471        H  0.33060679  0.05473118  0.08986125     0.08900
Cu472      Cu  0.24361952  0.95892380  0.10437831     0.44200
Cu473      Cu  0.27050252  0.04343173  0.11914831     0.42000
Cu474      Cu  0.20504708  0.99353812  0.14162813     0.43900
N475        N  0.20082193  0.93680205  0.11595448    -0.34700
N476        N  0.18691637  0.94903979  0.12983787    -0.28900
C477        C  0.15968821  0.92910861  0.13409825    -0.05000
C478        C  0.15628168  0.90285590  0.12237643     0.07200
C479        C  0.18264662  0.90908000  0.11092347     0.01000
H480        H  0.14340338  0.93353531  0.14491058     0.08600
H481        H  0.18771879  0.89531107  0.09943067     0.07700
N482        N  0.22569667  0.03995614  0.15029955    -0.36100
N483        N  0.24890428  0.05840262  0.14201936    -0.28300
C484        C  0.25680619  0.08654304  0.15111609    -0.03600
C485        C  0.23747863  0.08612163  0.16578550     0.05000
C486        C  0.21834295  0.05589756  0.16485241     0.03100
H487        H  0.27547555  0.10586912  0.14736798     0.08200
H488        H  0.20104315  0.04559493  0.17425583     0.07100
N489        N  0.73824737  0.04679436  0.14947443    -0.27300
N490        N  0.76532714  0.03095908  0.15608439    -0.35200
C491        C  0.77415967  0.04666950  0.17047796     0.01000
C492        C  0.75163033  0.07387866  0.17315080     0.07100
C493        C  0.72939879  0.07326687  0.15943705    -0.06000
H494        H  0.79614429  0.03944464  0.17815075     0.07700
H495        H  0.70943732  0.09174457  0.15637610     0.08900
Cu496      Cu  0.79158943  0.99123505  0.14441884     0.44200
Cu497      Cu  0.71589256  0.03295399  0.12666168     0.42000
Cu498      Cu  0.75856842  0.96353991  0.10430049     0.43900
N499        N  0.81431227  0.95294985  0.13016653    -0.34700
N500        N  0.80198238  0.94228507  0.11561394    -0.28900
C501        C  0.82140119  0.91583193  0.11016470    -0.05000
C502        C  0.84700348  0.90929363  0.12195438     0.07200
C503        C  0.84206787  0.93387244  0.13428435     0.01000
H504        H  0.81656927  0.90172928  0.09871099     0.08600
H505        H  0.85733165  0.93768150  0.14550734     0.07700
N506        N  0.71478387  0.98873926  0.09552954    -0.36100
N507        N  0.69916617  0.01405164  0.10359314    -0.28300
C508        C  0.67164200  0.02450174  0.09452125    -0.03600
C509        C  0.67005475  0.00505629  0.07996863     0.05000
C510        C  0.69763804  0.98241615  0.08116778     0.03100
H511        H  0.65368201  0.04425765  0.09845042     0.08200
H512        H  0.70479839  0.96277214  0.07222450     0.07100
N513        N  0.70388434  0.48584757  0.10575247    -0.27300
N514        N  0.71398626  0.51596234  0.09991078    -0.35200
C515        C  0.69280189  0.52529943  0.08732182     0.01000
C516        C  0.66800641  0.49969146  0.08487324     0.07100
C517        C  0.67651777  0.47480280  0.09674822    -0.06000
H518        H  0.69572571  0.54897654  0.08035891     0.07700
H519        H  0.66501123  0.44976442  0.09844440     0.08900
Cu520      Cu  0.75810656  0.54119438  0.10841442     0.44200
Cu521      Cu  0.72819646  0.46163113  0.12578598     0.42000
Cu522      Cu  0.81208038  0.49560316  0.13867231     0.43900
N523        N  0.80459687  0.56007543  0.11786934    -0.34700
N524        N  0.82468442  0.54317198  0.12850530    -0.28900
C525        C  0.85258921  0.56265812  0.13212245    -0.05000
C526        C  0.84966794  0.59346628  0.12354696     0.07200
C527        C  0.81911585  0.59078879  0.11451056     0.01000
H528        H  0.87312953  0.55525119  0.14064464     0.08600
H529        H  0.80831236  0.60966099  0.10601814     0.07700
N530        N  0.78859004  0.45318423  0.14968856    -0.36100
N531        N  0.75732632  0.44209167  0.14553875    -0.28300
C532        C  0.74847634  0.41612811  0.15579225    -0.03600
C533        C  0.77546811  0.41024580  0.16698148     0.05000
C534        C  0.80068955  0.43409509  0.16249671     0.03100
H535        H  0.72397411  0.40259448  0.15513466     0.08200
H536        H  0.82628057  0.43718124  0.16781763     0.07100
N537        N  0.30268079  0.50508428  0.10750965    -0.27300
N538        N  0.28430180  0.52735839  0.09872635    -0.35200
C539        C  0.30241689  0.53681203  0.08508820     0.01000
C540        C  0.33424832  0.52016964  0.08535814     0.07100
C541        C  0.33323688  0.50011650  0.09978396    -0.06000
H542        H  0.29219494  0.55326891  0.07535869     0.07700
H543        H  0.35292165  0.48243591  0.10415417     0.08900
Cu544      Cu  0.23544677  0.54365677  0.10577531     0.44200
Cu545      Cu  0.28372536  0.48016342  0.12871379     0.42000
Cu546      Cu  0.20119273  0.50962378  0.14486193     0.43900
N547        N  0.19048814  0.56084090  0.11707285    -0.34700
N548        N  0.17869340  0.54947185  0.13160841    -0.28900
C549        C  0.15064175  0.56792259  0.13595886    -0.05000
C550        C  0.14424516  0.59160050  0.12340956     0.07200
C551        C  0.17011389  0.58658293  0.11171027     0.01000
H552        H  0.13617885  0.56453994  0.14745311     0.08600
H553        H  0.17465085  0.60144394  0.10045744     0.07700
N554        N  0.22744630  0.46758530  0.15435844    -0.36100
N555        N  0.25771239  0.45690460  0.14858286    -0.28300
C556        C  0.26766793  0.42909459  0.15739533    -0.03600
C557        C  0.24251796  0.42209440  0.16930766     0.05000
C558        C  0.21724904  0.44680383  0.16690204     0.03100
H559        H  0.29132014  0.41485512  0.15518851     0.08200
H560        H  0.19340562  0.44974121  0.17389459     0.07100
N561        N  0.24598601  0.04940362  0.35256625    -0.27300
N562        N  0.26827235  0.03130730  0.34361521    -0.35200
C563        C  0.27693338  0.04939365  0.32984513     0.01000
C564        C  0.25976576  0.08076952  0.33022070     0.07100
C565        C  0.24012742  0.07954793  0.34477967    -0.06000
H566        H  0.29376641  0.03980821  0.32009494     0.07700
H567        H  0.22265948  0.09914248  0.34937322     0.08900
Cu568      Cu  0.28661264  0.98309200  0.35070289     0.44200
Cu569      Cu  0.22332581  0.03177758  0.37462534     0.42000
Cu570      Cu  0.25021805  0.94657138  0.38826122     0.43900
N571        N  0.30450285  0.93773431  0.36153572    -0.34700
N572        N  0.29132281  0.92451664  0.37538818    -0.28900
C573        C  0.31040659  0.89714366  0.38002002    -0.05000
C574        C  0.33678692  0.89248323  0.36841927     0.07200
C575        C  0.33221807  0.91897462  0.35694560     0.01000
H576        H  0.30652888  0.88311448  0.39156419     0.08600
H577        H  0.34856455  0.92492914  0.34632324     0.07700
N578        N  0.21207109  0.97532815  0.40007066    -0.36100
N579        N  0.20271717  0.00660957  0.39538180    -0.28300
C580        C  0.17766631  0.01793810  0.40573872    -0.03600
C581        C  0.17106916  0.99263485  0.41756397     0.05000
C582        C  0.19315661  0.96591095  0.41345664     0.03100
H583        H  0.16452380  0.04235754  0.40441566     0.08200
H584        H  0.19531854  0.94134646  0.41974858     0.07100
N585        N  0.79669802  0.01730416  0.40204839    -0.27300
N586        N  0.78433162  0.98819117  0.40821179    -0.35200
C587        C  0.80462362  0.97788658  0.42097609     0.01000
C588        C  0.83076784  0.00188201  0.42313943     0.07100
C589        C  0.82515593  0.02631871  0.41078868    -0.06000
H590        H  0.80033624  0.95486273  0.42831345     0.07700
H591        H  0.84081042  0.04879230  0.40817111     0.08900
Cu592      Cu  0.74034755  0.96374158  0.39924954     0.44200
Cu593      Cu  0.77491289  0.04341443  0.38186975     0.42000
Cu594      Cu  0.70127877  0.00319976  0.36247773     0.43900
N595        N  0.69676921  0.94449853  0.38730586    -0.34700
N596        N  0.68301725  0.95859761  0.37376683    -0.28900
C597        C  0.65575703  0.93957002  0.36881819    -0.05000
C598        C  0.65168593  0.91247349  0.37992275     0.07200
C599        C  0.67845187  0.91622945  0.39138164     0.01000
H600        H  0.64058521  0.94476780  0.35769754     0.08600
H601        H  0.68422824  0.89962872  0.40190649     0.07700
N602        N  0.72317510  0.04853438  0.35364727    -0.36100
N603        N  0.75050115  0.06317200  0.36070721    -0.28300
C604        C  0.75965038  0.09094932  0.35165493    -0.03600
C605        C  0.73665882  0.09426911  0.33840075     0.05000
C606        C  0.71398185  0.06680353  0.34001026     0.03100
H607        H  0.78174643  0.10723264  0.35436108     0.08200
H608        H  0.69315770  0.05986786  0.33154876     0.07100
N609        N  0.80443279  0.49291317  0.39458236    -0.27300
N610        N  0.78987482  0.51884498  0.40261731    -0.35200
C611        C  0.80896690  0.52596449  0.41633826     0.01000
C612        C  0.83689178  0.50338146  0.41699224     0.07100
C613        C  0.83325946  0.48322887  0.40278318    -0.06000
H614        H  0.80311929  0.54634766  0.42510919     0.07700
H615        H  0.85082352  0.46372796  0.39825036     0.08900
Cu616      Cu  0.74611749  0.54464358  0.39375113     0.44200
Cu617      Cu  0.78524962  0.47125464  0.37278112     0.42000
Cu618      Cu  0.70856507  0.50919156  0.35543523     0.43900
N619        N  0.70401526  0.56626493  0.38113657    -0.34700
N620        N  0.69035405  0.55313951  0.36733246    -0.28900
C621        C  0.66349039  0.57281852  0.36245194    -0.05000
C622        C  0.66023340  0.60005092  0.37353842     0.07200
C623        C  0.68620396  0.59476644  0.38532468     0.01000
H624        H  0.64702503  0.56705533  0.35183543     0.08600
H625        H  0.69174388  0.61051478  0.39617998     0.07700
N626        N  0.73262011  0.46637272  0.34510891    -0.36100
N627        N  0.76111026  0.45267116  0.35145386    -0.28300
C628        C  0.77068344  0.42574596  0.34196931    -0.03600
C629        C  0.74685210  0.42202253  0.32910082     0.05000
C630        C  0.72322766  0.44845017  0.33140487     0.03100
H631        H  0.79315903  0.40981898  0.34436317     0.08200
H632        H  0.70116422  0.45460008  0.32357011     0.07100
N633        N  0.21646033  0.48892417  0.40016661    -0.27300
N634        N  0.22510802  0.52048994  0.40459994    -0.35200
C635        C  0.20599702  0.52991681  0.41789891     0.01000
C636        C  0.18463671  0.50264213  0.42240350     0.07100
C637        C  0.19207234  0.47717143  0.41073606    -0.06000
H638        H  0.20650372  0.55547111  0.42318119     0.07700
H639        H  0.17983979  0.45223269  0.40959757     0.08900
Cu640      Cu  0.26208884  0.54923742  0.39210930     0.44200
Cu641      Cu  0.23445382  0.46523604  0.37854610     0.42000
Cu642      Cu  0.29689790  0.51145582  0.35364253     0.43900
N643        N  0.30313667  0.56963772  0.37871503    -0.34700
N644        N  0.31596228  0.55614520  0.36482439    -0.28900
C645        C  0.34342366  0.57507971  0.35992058    -0.05000
C646        C  0.34831891  0.60129382  0.37141586     0.07200
C647        C  0.32212703  0.59724235  0.38305105     0.01000
H648        H  0.35930561  0.56954601  0.34908887     0.08600
H649        H  0.31744405  0.61292234  0.39401146     0.07700
N650        N  0.27296015  0.46616104  0.34565929    -0.36100
N651        N  0.25034378  0.44916534  0.35494860    -0.28300
C652        C  0.23929022  0.42133045  0.34646150    -0.03600
C653        C  0.25528154  0.42081580  0.33089942     0.05000
C654        C  0.27684038  0.44950535  0.33097638     0.03100
H655        H  0.22140995  0.40252567  0.35147219     0.08200
H656        H  0.29391967  0.45783035  0.32101813     0.07100
O657        O  0.03634364  0.78707986  0.10721023    -0.73000
O658        O  0.96133680  0.71454654  0.10809712    -0.73900
O659        O  0.96226095  0.78799087  0.10660651    -0.62600
O660        O  0.03473136  0.71407042  0.10860680    -0.71000
O661        O  0.03344211  0.71598684  0.13632187    -0.70500
O662        O  0.96184325  0.79021045  0.13428260    -0.61800
O663        O  0.96000207  0.71741466  0.13588803    -0.74300
O664        O  0.03507208  0.78923651  0.13500444    -0.73100
Cu665      Cu  0.99866323  0.75089833  0.10664290     1.04600
Cu666      Cu  0.99757667  0.75331866  0.13631860     1.04300
C667        C  0.04738801  0.79961436  0.12103648     0.93200
C668        C  0.94926824  0.70432839  0.12215965     0.92400
C669        C  0.95056378  0.80098134  0.12015649     0.84500
C670        C  0.04542561  0.70312144  0.12280396     0.90800
O671        O  0.53911472  0.78956460  0.38928389    -0.73000
O672        O  0.46599135  0.71648007  0.38627489    -0.73900
O673        O  0.53964685  0.71664306  0.38850634    -0.62600
O674        O  0.46482729  0.78896841  0.38680022    -0.71000
O675        O  0.46909360  0.79062567  0.35906103    -0.70500
O676        O  0.54287218  0.71787202  0.36088148    -0.61800
O677        O  0.46918264  0.71770849  0.35860446    -0.74300
O678        O  0.54262509  0.79095139  0.36150066    -0.73100
Cu679      Cu  0.50233941  0.75293562  0.38868732     1.04600
Cu680      Cu  0.50614218  0.75433111  0.35905651     1.04300
C681        C  0.55237811  0.80170129  0.37587603     0.93200
C682        C  0.45563443  0.70571359  0.37198972     0.92400
C683        C  0.55309340  0.70560345  0.37491845     0.84500
C684        C  0.45481614  0.80069902  0.37262086     0.90800
O685        O  0.46428980  0.21078282  0.61913672    -0.73000
O686        O  0.53736132  0.28406787  0.61658051    -0.73900
O687        O  0.53820145  0.21124803  0.61759400    -0.62600
O688        O  0.46309829  0.28346104  0.61848850    -0.71000
O689        O  0.46577947  0.28463514  0.64613116    -0.70500
O690        O  0.54087717  0.21272269  0.64523505    -0.61800
O691        O  0.54030298  0.28546144  0.64429078    -0.74300
O692        O  0.46719880  0.21138371  0.64693626    -0.73100
Cu693      Cu  0.50062588  0.24740413  0.61700372     1.04600
Cu694      Cu  0.50360838  0.24868807  0.64661548     1.04300
C695        C  0.45422793  0.19958854  0.63335734     0.93200
C696        C  0.55116184  0.29570006  0.62999682     0.92400
C697        C  0.55168197  0.20063816  0.63132676     0.84500
C698        C  0.45194757  0.29507970  0.63248717     0.90800
O699        O  0.03322892  0.21337814  0.88560371    -0.73000
O700        O  0.95822451  0.28547047  0.88543189    -0.73900
O701        O  0.96000538  0.21249908  0.88422050    -0.62600
O702        O  0.03155032  0.28636305  0.88724289    -0.71000
O703        O  0.03348622  0.28990779  0.85959832    -0.70500
O704        O  0.96206137  0.21310100  0.85659772    -0.61800
O705        O  0.95964104  0.28689494  0.85779098    -0.74300
O706        O  0.03624568  0.21648357  0.85790419    -0.73100
Cu707      Cu  0.99568757  0.24934767  0.88652920     1.04600
Cu708      Cu  0.99796222  0.25168018  0.85697194     1.04300
C709        C  0.04641300  0.20337777  0.87175158     0.93200
C710        C  0.94691615  0.29772199  0.87160702     0.92400
C711        C  0.94969224  0.20058115  0.87020812     0.84500
C712        C  0.04352499  0.30042552  0.87403343     0.90800
C713        C  0.38238167  0.64676498  0.35700893    -0.09200
C714        C  0.37613547  0.62742346  0.37152230     0.07000
C715        C  0.39640011  0.63354145  0.38591049    -0.02900
C716        C  0.42186496  0.65911806  0.38568911    -0.07400
C717        C  0.42811161  0.67893367  0.37124700     0.06100
C718        C  0.40787013  0.67249998  0.35673973    -0.02400
Br719      Br  0.41202012  0.69856715  0.33637623    -0.02100
H720        H  0.36680974  0.64229531  0.34590102     0.10000
H721        H  0.43730436  0.66305791  0.39688199     0.08100
Br722      Br  0.39247128  0.60605295  0.40581967    -0.02500
C723        C  0.61930926  0.63784403  0.38907793    -0.09200
C724        C  0.63330763  0.62740269  0.37367134     0.07000
C725        C  0.62113443  0.64324147  0.35887569    -0.02900
C726        C  0.59520264  0.66832593  0.35972843    -0.07400
C727        C  0.58068485  0.67861222  0.37511473     0.06100
C728        C  0.59324070  0.66289544  0.38997785    -0.02400
Br729      Br  0.57626175  0.67330348  0.41202890    -0.02100
H730        H  0.62827328  0.62592650  0.40056710     0.10000
H731        H  0.58661438  0.68007825  0.34813749     0.08100
Br732      Br  0.64028664  0.63398633  0.33714262    -0.02500
C733        C  0.63608023  0.85060080  0.38311821    -0.09200
C734        C  0.62575661  0.88436757  0.37916709     0.07000
C735        C  0.59092749  0.89040272  0.37445562    -0.02900
C736        C  0.56774744  0.86289411  0.37325177    -0.07400
C737        C  0.57820343  0.82935634  0.37697974     0.06100
C738        C  0.61257194  0.82315950  0.38205972    -0.02400
Br739      Br  0.62862316  0.77760037  0.38709886    -0.02100
H740        H  0.66265425  0.84541481  0.38675905     0.10000
H741        H  0.54110777  0.86782568  0.36976116     0.08100
Br742      Br  0.57218950  0.93556430  0.37090361    -0.02500
C743        C  0.39282177  0.81360473  0.37754052    -0.09200
C744        C  0.42529423  0.82471903  0.37179794     0.07000
C745        C  0.42825792  0.85747684  0.36446296    -0.02900
C746        C  0.39921866  0.87898999  0.36350135    -0.07400
C747        C  0.36654314  0.86814146  0.36935178     0.06100
C748        C  0.36342576  0.83456128  0.37605250    -0.02400
Br749      Br  0.31965029  0.81407543  0.38174025    -0.02100
H750        H  0.39005350  0.78788099  0.38261557     0.10000
H751        H  0.40241478  0.90450537  0.35828150     0.08100
Br752      Br  0.47154049  0.87440220  0.35601112    -0.02500
C753        C  0.11496801  0.64022405  0.13749247    -0.09200
C754        C  0.11803549  0.61906590  0.12337552     0.07000
C755        C  0.09705041  0.62536813  0.10927810    -0.02900
C756        C  0.07396480  0.65301604  0.10935953    -0.07400
C757        C  0.07101103  0.67469304  0.12340054     0.06100
C758        C  0.09197774  0.66801650  0.13761520    -0.02400
Br759      Br  0.09253502  0.69663091  0.15723612    -0.02100
H760        H  0.13132347  0.63570148  0.14832904     0.10000
H761        H  0.05774977  0.65713488  0.09844232     0.08100
Br762      Br  0.09716533  0.59569715  0.09004654    -0.02500
C763        C  0.90998010  0.61525811  0.12122025    -0.09200
C764        C  0.87464315  0.62235082  0.12357414     0.07000
C765        C  0.86404028  0.65673814  0.12601830    -0.02900
C766        C  0.88861567  0.68336212  0.12548877    -0.07400
C767        C  0.92374719  0.67617850  0.12261511     0.06100
C768        C  0.93444328  0.64182892  0.12073471    -0.02400
Br769      Br  0.98240432  0.62997236  0.11809459    -0.02100
H770        H  0.91857359  0.58894341  0.11961096     0.10000
H771        H  0.88034266  0.70968513  0.12742742     0.08100
Br772      Br  0.81700290  0.66843384  0.13146154    -0.02500
C773        C  0.90834040  0.83776223  0.13520289    -0.09200
C774        C  0.92372443  0.82849145  0.11989340     0.07000
C775        C  0.91275781  0.84565842  0.10513469    -0.02900
C776        C  0.88786372  0.87184442  0.10615211    -0.07400
C777        C  0.87312687  0.88134692  0.12155440     0.06100
C778        C  0.88312318  0.86337158  0.13613894    -0.02400
Br779      Br  0.86135570  0.86963430  0.15755647    -0.02100
H780        H  0.91538353  0.82449607  0.14664899     0.10000
H781        H  0.88016818  0.88509309  0.09479515     0.08100
Br782      Br  0.93024813  0.83542306  0.08315362    -0.02500
C783        C  0.09548128  0.88359821  0.12793728    -0.09200
C784        C  0.12877872  0.87578625  0.12177623     0.07000
C785        C  0.13475927  0.84233531  0.11532993    -0.02900
C786        C  0.10764664  0.81825710  0.11475099    -0.07400
C787        C  0.07468307  0.82626506  0.12096726     0.06100
C788        C  0.06868283  0.85918995  0.12764241    -0.02400
Br789      Br  0.02379216  0.87233644  0.13582564    -0.02100
H790        H  0.09004063  0.90897551  0.13285201     0.10000
H791        H  0.11264888  0.79267725  0.10994208     0.08100
Br792      Br  0.17971001  0.82621142  0.10864127    -0.02500
C793        C  0.27010859  0.36205463  0.20436388    -0.09200
C794        C  0.24063346  0.34117258  0.20600914     0.07000
C795        C  0.21165532  0.34717830  0.19564740    -0.02900
C796        C  0.21266590  0.37369957  0.18376783    -0.07400
C797        C  0.24240771  0.39430725  0.18194407     0.06100
C798        C  0.27119457  0.38849204  0.19249515    -0.02400
Br799      Br  0.31155159  0.41746175  0.19220863    -0.02100
H800        H  0.29225709  0.35793143  0.21249802     0.10000
H801        H  0.19025083  0.37809264  0.17584232     0.08100
Br802      Br  0.17015951  0.32014717  0.19751624    -0.02500
C803        C  0.27131326  0.12637917  0.18390630    -0.09200
C804        C  0.23907977  0.11158492  0.17974275     0.07000
C805        C  0.20932265  0.12215003  0.18875858    -0.02900
C806        C  0.21233787  0.14685775  0.20148603    -0.07400
C807        C  0.24456212  0.16142557  0.20558170     0.06100
C808        C  0.27423293  0.15089371  0.19670650    -0.02400
Br809      Br  0.31916090  0.16980209  0.20151358    -0.02100
H810        H  0.29449023  0.11870777  0.17723049     0.10000
H811        H  0.18929659  0.15516758  0.20810169     0.08100
Br812      Br  0.16337749  0.10626052  0.18357247    -0.02500
C813        C  0.21920851  0.35092520  0.30195541    -0.09200
C814        C  0.24888388  0.34199831  0.29282824     0.07000
C815        C  0.27986698  0.36032385  0.29555292    -0.02900
C816        C  0.28138495  0.38581481  0.30793223    -0.07400
C817        C  0.25198114  0.39430767  0.31749652     0.06100
C818        C  0.22028147  0.37728023  0.31394504    -0.02400
Br819      Br  0.17679695  0.39104992  0.32351715    -0.02100
H820        H  0.19490059  0.33788271  0.29941940     0.10000
H821        H  0.30579292  0.39890089  0.31012828     0.08100
Br822      Br  0.32046764  0.35169841  0.28234464    -0.02500
C823        C  0.28731351  0.14385461  0.29582224    -0.09200
C824        C  0.25635904  0.16203353  0.29322981     0.07000
C825        C  0.22717495  0.15393701  0.30302419    -0.02900
C826        C  0.22892367  0.12740690  0.31484297    -0.07400
C827        C  0.25971933  0.10872064  0.31742353     0.06100
C828        C  0.28941949  0.11773240  0.30793152    -0.02400
Br829      Br  0.33435344  0.09793378  0.31176516    -0.02100
H830        H  0.31009726  0.15043206  0.28855183     0.10000
H831        H  0.20584755  0.12123279  0.32196358     0.08100
Br832      Br  0.18430857  0.17845969  0.30062945    -0.02500
C833        C  0.88483390  0.13111700  0.88372327    -0.09200
C834        C  0.87279358  0.11874215  0.86829113     0.07000
C835        C  0.88619557  0.13340794  0.85345103    -0.02900
C836        C  0.91113425  0.15976928  0.85435340    -0.07400
C837        C  0.92335210  0.17222103  0.86986671     0.06100
C838        C  0.90977252  0.15719026  0.88471934    -0.02400
Br839      Br  0.92348502  0.16983060  0.90708843    -0.02100
H840        H  0.87502779  0.12003422  0.89524392     0.10000
H841        H  0.92070990  0.17080812  0.84278511     0.08100
Br842      Br  0.86980203  0.12049119  0.83162071    -0.02500
C843        C  0.10217385  0.17994550  0.86089313    -0.09200
C844        C  0.07355636  0.17645119  0.87167160     0.07000
C845        C  0.07120735  0.14697150  0.88196862    -0.02900
C846        C  0.09732135  0.12197796  0.88145982    -0.07400
C847        C  0.12598196  0.12579836  0.87085362     0.06100
C848        C  0.12841319  0.15503180  0.86053527    -0.02400
Br849      Br  0.16734755  0.16202887  0.84597028    -0.02100
H850        H  0.10440008  0.20238555  0.85290781     0.10000
H851        H  0.09522468  0.09939193  0.88935783     0.08100
Br852      Br  0.03200153  0.13832818  0.89618794    -0.02500
C853        C  0.63129116  0.97510705  0.05968789    -0.09200
C854        C  0.64344063  0.00620498  0.06653690     0.07000
C855        C  0.63014819  0.03752642  0.06025781    -0.02900
C856        C  0.60394744  0.03717117  0.04808447    -0.07400
C857        C  0.59143222  0.00605427  0.04156524     0.06100
C858        C  0.60575689  0.97488181  0.04720228    -0.02400
Br859      Br  0.59147212  0.93157314  0.03795492    -0.02100
H860        H  0.64154116  0.95081848  0.06412344     0.10000
H861        H  0.59385462  0.06129882  0.04334939     0.08100
Br862      Br  0.64902704  0.08144965  0.06643078    -0.02500
C863        C  0.38315148  0.02807780  0.06659425    -0.09200
C864        C  0.35539430  0.00483405  0.06441894     0.07000
C865        C  0.35520159  0.98405338  0.04978546    -0.02900
C866        C  0.38290453  0.98570580  0.03846486    -0.07400
C867        C  0.41044474  0.00881185  0.04077690     0.06100
C868        C  0.40997683  0.03069707  0.05483233    -0.02400
Br869      Br  0.44428312  0.06593609  0.05808078    -0.02100
H870        H  0.38406024  0.04470203  0.07745085     0.10000
H871        H  0.38250991  0.96943464  0.02744281     0.08100
Br872      Br  0.31702823  0.95539610  0.04307006    -0.02500
C873        C  0.60583427  0.97514176  0.94934964    -0.09200
C874        C  0.59321109  0.00724699  0.95445842     0.07000
C875        C  0.60727675  0.03733508  0.94739885    -0.02900
C876        C  0.63287267  0.03495446  0.93502786    -0.07400
C877        C  0.64493159  0.00279158  0.92948982     0.06100
C878        C  0.63166221  0.97266519  0.93708023    -0.02400
Br879      Br  0.64962357  0.92768297  0.93235426    -0.02100
H880        H  0.59572768  0.95192092  0.95506613     0.10000
H881        H  0.64300421  0.05838091  0.92953526     0.08100
Br882      Br  0.59238319  0.08211179  0.95443178    -0.02500
C883        C  0.40613839  0.04920181  0.94544434    -0.09200
C884        C  0.41247041  0.01841626  0.95406609     0.07000
C885        C  0.39316466  0.98889269  0.94994074    -0.02900
C886        C  0.36897863  0.99003989  0.93685210    -0.07400
C887        C  0.36266799  0.02072342  0.92805758     0.06100
C888        C  0.38113243  0.05072356  0.93268029    -0.02400
Br889      Br  0.37484255  0.09400752  0.92152430    -0.02100
H890        H  0.42084149  0.07206331  0.94862322     0.10000
H891        H  0.35464481  0.96694119  0.93369241     0.08100
Br892      Br  0.39900567  0.94659522  0.96199467    -0.02500
C893        C  0.75644750  0.35324311  0.17783862    -0.09200
C894        C  0.77663151  0.38306105  0.18016641     0.07000
C895        C  0.79575974  0.38639456  0.19525241    -0.02900
C896        C  0.79532523  0.35977407  0.20708720    -0.07400
C897        C  0.77424214  0.33059924  0.20492558     0.06100
C898        C  0.75431468  0.32775200  0.19015188    -0.02400
Br899      Br  0.72139493  0.29132359  0.18658401    -0.02100
H900        H  0.74131214  0.34996696  0.16651669     0.10000
H901        H  0.81006086  0.36273609  0.21857538     0.08100
Br902      Br  0.81915542  0.42785980  0.20187851    -0.02500
C903        C  0.78738406  0.10967614  0.19256723    -0.09200
C904        C  0.75433786  0.10055993  0.18643614     0.07000
C905        C  0.72493238  0.11750480  0.19301926    -0.02900
C906        C  0.72917630  0.14411107  0.20463919    -0.07400
C907        C  0.76217784  0.15344023  0.21051835     0.06100
C908        C  0.79142616  0.13555894  0.20461272    -0.02400
Br909      Br  0.83728149  0.14542321  0.21269450    -0.02100
H910        H  0.81033969  0.09692065  0.18785908     0.10000
H911        H  0.70645320  0.15710733  0.20948826     0.08100
Br912      Br  0.67818413  0.10370316  0.18806956    -0.02500
C913        C  0.72014050  0.35133527  0.29871766    -0.09200
C914        C  0.75196496  0.34381768  0.29109624     0.07000
C915        C  0.78166410  0.36271967  0.29560502    -0.02900
C916        C  0.77937386  0.38827416  0.30788723    -0.07400
C917        C  0.74757785  0.39579331  0.31566180     0.06100
C918        C  0.71766165  0.37716581  0.31087113    -0.02400
Br919      Br  0.67338585  0.38359313  0.32137386    -0.02100
H920        H  0.69728729  0.33654748  0.29540898     0.10000
H921        H  0.80256607  0.40233355  0.31139051     0.08100
Br922      Br  0.82596042  0.35368174  0.28561265    -0.02500
C923        C  0.71254748  0.16129481  0.30562238    -0.09200
C924        C  0.74436087  0.16559774  0.29735219     0.07000
C925        C  0.77351046  0.14702247  0.30284688    -0.02900
C926        C  0.77054024  0.12414701  0.31630005    -0.07400
C927        C  0.73864906  0.11927530  0.32444831     0.06100
C928        C  0.70951791  0.13837370  0.31912040    -0.02400
Br929      Br  0.66595039  0.13624462  0.33068985    -0.02100
H930        H  0.69020720  0.17617486  0.30170875     0.10000
H931        H  0.79320134  0.10988982  0.32033309     0.08100
Br932      Br  0.81803890  0.15298706  0.29253164    -0.02500
C933        C  0.09870943  0.37436341  0.89107050    -0.09200
C934        C  0.12033035  0.38112587  0.87738000     0.07000
C935        C  0.11656741  0.36151652  0.86267210    -0.02900
C936        C  0.09136294  0.33562584  0.86182728    -0.07400
C937        C  0.06939689  0.32872359  0.87547770     0.06100
C938        C  0.07308102  0.34884551  0.89021316    -0.02400
Br939      Br  0.04289568  0.34489260  0.90928964    -0.02100
H940        H  0.10120563  0.38964998  0.90236233     0.10000
H941        H  0.08933948  0.32047010  0.85048242     0.08100
Br942      Br  0.14665546  0.36763437  0.84376124    -0.02500
C943        C  0.87835954  0.36377906  0.88491584    -0.09200
C944        C  0.86744768  0.37704537  0.86938770     0.07000
C945        C  0.88237251  0.36333556  0.85467650    -0.02900
C946        C  0.90815174  0.33798218  0.85580827    -0.07400
C947        C  0.91926180  0.32476544  0.87136634     0.06100
C948        C  0.90346388  0.33783195  0.88607421    -0.02400
Br949      Br  0.91341999  0.32137418  0.90829276    -0.02100
H950        H  0.86715425  0.37359784  0.89638858     0.10000
H951        H  0.91909667  0.32809773  0.84428799     0.08100
Br952      Br  0.86679248  0.37524449  0.83257038    -0.02500
C953        C  0.39357390  0.54468020  0.04877464    -0.09200
C954        C  0.41213531  0.51405134  0.04666354     0.07000
C955        C  0.40588028  0.48629654  0.05751140    -0.02900
C956        C  0.38069358  0.48908363  0.06998788    -0.07400
C957        C  0.36147377  0.51951996  0.07212950     0.06100
C958        C  0.36869618  0.54786398  0.06148124    -0.02400
Br959      Br  0.34806256  0.59243782  0.06417162    -0.02100
H960        H  0.39889805  0.56637806  0.04064389     0.10000
H961        H  0.37582143  0.46693301  0.07786175     0.08100
Br962      Br  0.43090093  0.44386673  0.05556414    -0.02500
C963        C  0.58706825  0.47717568  0.05891468    -0.09200
C964        C  0.59076964  0.49954593  0.04526224     0.07000
C965        C  0.61900534  0.52239782  0.04495095    -0.02900
C966        C  0.64400856  0.52120731  0.05765747    -0.07400
C967        C  0.64057190  0.49892863  0.07153681     0.06100
C968        C  0.61068010  0.47755037  0.07226712    -0.02400
Br969      Br  0.59689370  0.45158223  0.09160965    -0.02100
H970        H  0.56455062  0.46049479  0.05956302     0.10000
H971        H  0.66591547  0.53846312  0.05667387     0.08100
Br972      Br  0.62302295  0.55748141  0.02811424    -0.02500
C973        C  0.39693538  0.46280939  0.95327563    -0.09200
C974        C  0.40723277  0.49439318  0.96009143     0.07000
C975        C  0.39137527  0.52487976  0.95458390    -0.02900
C976        C  0.36548826  0.52348978  0.94234136    -0.07400
C977        C  0.35491522  0.49190950  0.93544791     0.06100
C978        C  0.37101455  0.46128563  0.94100613    -0.02400
Br979      Br  0.36115580  0.41701252  0.93147345    -0.02100
H980        H  0.40951683  0.43934250  0.95735997     0.10000
H981        H  0.35349297  0.54722991  0.93823073     0.08100
Br982      Br  0.40495496  0.56891830  0.96324720    -0.02500
C983        C  0.60000791  0.45752056  0.95218173    -0.09200
C984        C  0.58810617  0.48942513  0.95795336     0.07000
C985        C  0.60031711  0.51970561  0.95027076    -0.02900
C986        C  0.62418392  0.51774097  0.93708616    -0.07400
C987        C  0.63645272  0.48581564  0.93131641     0.06100
C988        C  0.62389210  0.45544347  0.93898761    -0.02400
Br989      Br  0.63550924  0.41029954  0.93110358    -0.02100
H990        H  0.59004856  0.43408987  0.95775049     0.10000
H991        H  0.63326171  0.54134427  0.93134768     0.08100
Br992      Br  0.58436152  0.56422470  0.95719985    -0.02500
C993        C  0.62536922  0.13971303  0.64402271    -0.09200
C994        C  0.63380022  0.12472552  0.62859237     0.07000
C995        C  0.61453363  0.13403426  0.61428008    -0.02900
C996        C  0.58821087  0.15870780  0.61552390    -0.07400
C997        C  0.57991295  0.17432295  0.63093582     0.06100
C998        C  0.59888066  0.16417505  0.64538259    -0.02400
Br999      Br  0.59100840  0.18216099  0.66748798    -0.02100
H1000       H  0.63978713  0.13253179  0.65515476     0.10000
H1001       H  0.57377449  0.16524772  0.60431484     0.08100
Br1002     Br  0.62071871  0.11180981  0.59302249    -0.02500
C1003       C  0.43655987  0.13901687  0.63788219    -0.09200
C1004       C  0.42727047  0.17286578  0.63394671     0.07000
C1005       C  0.39283746  0.18026603  0.62939977    -0.02900
C1006       C  0.36802685  0.15394020  0.62912889    -0.07400
C1007       C  0.37712322  0.11981370  0.63300424     0.06100
C1008       C  0.41205799  0.11240380  0.63712777    -0.02400
Br1009     Br  0.42915656  0.06636164  0.63976198    -0.02100
H1010       H  0.46334518  0.13303285  0.64082789     0.10000
H1011       H  0.34151453  0.16018983  0.62579829     0.08100
Br1012     Br  0.37875397  0.22603982  0.62345785    -0.02500
C1013       C  0.89490379  0.02827288  0.45701560    -0.09200
C1014       C  0.91199479  0.99711178  0.46002529     0.07000
C1015       C  0.90199133  0.96750666  0.45113046    -0.02900
C1016       C  0.87545883  0.96955604  0.43918102    -0.07400
C1017       C  0.85871313  0.00094426  0.43585791     0.06100
C1018       C  0.86841601  0.03044367  0.44507286    -0.02400
Br1019     Br  0.84501829  0.07377355  0.44289313    -0.02100
H1020       H  0.90226892  0.05102398  0.46401398     0.10000
H1021       H  0.86811972  0.94660465  0.43233965     0.08100
Br1022     Br  0.92370094  0.92388418  0.45510381    -0.02500
C1023       C  0.86899626  0.03485080  0.55856113    -0.09200
C1024       C  0.87031348  0.01042805  0.57157876     0.07000
C1025       C  0.89935019  0.98809627  0.57240739    -0.02900
C1026       C  0.92454959  0.98911249  0.55981290    -0.07400
C1027       C  0.92227728  0.01264552  0.54655340     0.06100
C1028       C  0.89473857  0.03635961  0.54627309    -0.02400
Br1029     Br  0.89109846  0.07130204  0.52936310    -0.02100
H1030       H  0.84746882  0.05259550  0.55765084     0.10000
H1031       H  0.94608475  0.97123704  0.56030452     0.08100
Br1032     Br  0.90826095  0.95705257  0.59063303    -0.02500
C1033       C  0.13115211  0.02023386  0.53970758    -0.09200
C1034       C  0.10141654  0.00015517  0.54250323     0.07000
C1035       C  0.09992096  0.97923158  0.55690282    -0.02900
C1036       C  0.12709035  0.97988128  0.56849978    -0.07400
C1037       C  0.15689825  0.00007685  0.56583289     0.06100
C1038       C  0.15909177  0.01975769  0.55094720    -0.02400
Br1039     Br  0.20031680  0.04373684  0.54415139    -0.02100
H1040       H  0.13297911  0.03570490  0.52844376     0.10000
H1041       H  0.12476124  0.96426567  0.57967312     0.08100
Br1042     Br  0.06223578  0.94797511  0.56101186    -0.02500
C1043       C  0.11336741  0.01962467  0.45390123    -0.09200
C1044       C  0.09302601  0.99004954  0.45605687     0.07000
C1045       C  0.09860626  0.96139720  0.44566653    -0.02900
C1046       C  0.12422117  0.96275024  0.43327036    -0.07400
C1047       C  0.14438314  0.99253023  0.43090318     0.06100
C1048       C  0.13889462  0.02112487  0.44147460    -0.02400
Br1049     Br  0.16690819  0.06192073  0.44048254    -0.02100
H1050       H  0.10944207  0.04160569  0.46202070     0.10000
H1051       H  0.12815345  0.94052047  0.42532213     0.08100
Br1052     Br  0.07217444  0.91988793  0.44814172    -0.02500
C1053       C  0.41084220  0.33368709  0.61720124    -0.09200
C1054       C  0.42282124  0.32059430  0.63262471     0.07000
C1055       C  0.40617190  0.33199881  0.64748141    -0.02900
C1056       C  0.37961654  0.35664044  0.64659169    -0.07400
C1057       C  0.36792190  0.36951395  0.63116196     0.06100
C1058       C  0.38365515  0.35750433  0.61634814    -0.02400
Br1059     Br  0.37062923  0.37395851  0.59454835    -0.02100
H1060       H  0.42273357  0.32547432  0.60559024     0.10000
H1061       H  0.36734372  0.36518657  0.65806281     0.08100
Br1062     Br  0.41646263  0.31429069  0.66941908    -0.02500
C1063       C  0.63314195  0.34741771  0.63922594    -0.09200
C1064       C  0.63378952  0.37020977  0.62559481     0.07000
C1065       C  0.60763048  0.36783256  0.61329120    -0.02900
C1066       C  0.58099873  0.34354958  0.61501885    -0.07400
C1067       C  0.57994678  0.32100572  0.62879478     0.06100
C1068       C  0.60701482  0.32253251  0.64075603    -0.02400
Br1069     Br  0.61166125  0.28968266  0.65861497    -0.02100
H1070       H  0.65354509  0.34851875  0.64857164     0.10000
H1071       H  0.56071038  0.34261989  0.60561602     0.08100
Br1072     Br  0.60567323  0.39837977  0.59441664    -0.02500
C1073       C  0.12776298  0.48016628  0.43246422    -0.09200
C1074       C  0.15642777  0.50198245  0.43515989     0.07000
C1075       C  0.15702161  0.52234801  0.44987300    -0.02900
C1076       C  0.12851918  0.52214933  0.46072340    -0.07400
C1077       C  0.09986314  0.50063790  0.45783736     0.06100
C1078       C  0.10012740  0.47879369  0.44375922    -0.02400
Br1079     Br  0.06433165  0.44538011  0.43969528    -0.02100
H1080       H  0.12659953  0.46388729  0.42149000     0.10000
H1081       H  0.12912332  0.53819630  0.47181997     0.08100
Br1082     Br  0.19674440  0.54826085  0.45712949    -0.02500
C1083       C  0.08703646  0.45484016  0.55464179    -0.09200
C1084       C  0.08976242  0.48469188  0.54481561     0.07000
C1085       C  0.11470898  0.50973868  0.54901635    -0.02900
C1086       C  0.13550675  0.50530100  0.56324522    -0.07400
C1087       C  0.13239737  0.47573678  0.57322890     0.06100
C1088       C  0.10829963  0.45010376  0.56869796    -0.02400
Br1089     Br  0.10196000  0.40933178  0.58188821    -0.02100
H1090       H  0.06778896  0.43551905  0.55153650     0.10000
H1091       H  0.15420843  0.52501208  0.56654124     0.08100
Br1092     Br  0.12051386  0.55079173  0.53597595    -0.02500
C1093       C  0.87407805  0.46889394  0.56051579    -0.09200
C1094       C  0.85566837  0.49944064  0.56348473     0.07000
C1095       C  0.86494387  0.52951450  0.55463075    -0.02900
C1096       C  0.89221253  0.52857716  0.54309037    -0.07400
C1097       C  0.91083952  0.49818091  0.54036844     0.06100
C1098       C  0.90175795  0.46819992  0.54920573    -0.02400
Br1099     Br  0.92672344  0.42599187  0.54626278    -0.02100
H1100       H  0.86741938  0.44567226  0.56730430     0.10000
H1101       H  0.89899246  0.55165604  0.53621013     0.08100
Br1102     Br  0.84028510  0.57205595  0.55709379    -0.02500
C1103       C  0.90997894  0.47364851  0.44600953    -0.09200
C1104       C  0.91940549  0.50467504  0.45365504     0.07000
C1105       C  0.90196522  0.53504533  0.44919337    -0.02900
C1106       C  0.87548682  0.53405307  0.43717545    -0.07400
C1107       C  0.86556705  0.50292749  0.42951879     0.06100
C1108       C  0.88311249  0.47234857  0.43420653    -0.02400
Br1109     Br  0.87002211  0.42733598  0.42655448    -0.02100
H1110       H  0.92281375  0.45006288  0.44973815     0.10000
H1111       H  0.86263041  0.55783422  0.43382616     0.08100
Br1112     Br  0.91313043  0.57823708  0.45947769    -0.02500
C1113       C  0.22632818  0.65588931  0.69653493    -0.09200
C1114       C  0.25044856  0.65281555  0.70963158     0.07000
C1115       C  0.27233508  0.62386310  0.71002736    -0.02900
C1116       C  0.26932892  0.59848454  0.69767565    -0.07400
C1117       C  0.24547111  0.60153769  0.68433916     0.06100
C1118       C  0.22412385  0.63123242  0.68378577    -0.02400
Br1119     Br  0.19361497  0.64238896  0.66555019    -0.02100
H1120       H  0.20965020  0.67828747  0.69599572     0.10000
H1121       H  0.28607081  0.57625089  0.69857723     0.08100
Br1122     Br  0.30768287  0.61824976  0.72678958    -0.02500
C1123       C  0.21153361  0.63064395  0.81938027    -0.09200
C1124       C  0.24111564  0.61071365  0.82271705     0.07000
C1125       C  0.27114583  0.61553754  0.81288910    -0.02900
C1126       C  0.27114643  0.64001878  0.80004961    -0.07400
C1127       C  0.24180131  0.66027510  0.79693388     0.06100
C1128       C  0.21183825  0.65561481  0.80674498    -0.02400
Br1129     Br  0.17100639  0.68293500  0.80337954    -0.02100
H1130       H  0.18832184  0.62721848  0.82684338     0.10000
H1131       H  0.29420842  0.64341148  0.79247364     0.08100
Br1132     Br  0.31224305  0.58831666  0.81574077    -0.02500
C1133       C  0.21326617  0.84393143  0.80296643    -0.09200
C1134       C  0.24347922  0.83926751  0.79347474     0.07000
C1135       C  0.27261127  0.86010011  0.79673318    -0.02900
C1136       C  0.27140262  0.88472922  0.80953071    -0.07400
C1137       C  0.24116658  0.88955586  0.81906425     0.06100
C1138       C  0.21182038  0.86885105  0.81562593    -0.02400
Br1139     Br  0.16992053  0.87148405  0.82851556    -0.02100
H1140       H  0.19089794  0.82767521  0.80067650     0.10000
H1141       H  0.29408993  0.90047746  0.81191153     0.08100
Br1142     Br  0.31472495  0.85529417  0.78417644    -0.02500
C1143       C  0.22495528  0.84106414  0.69853669    -0.09200
C1144       C  0.25584719  0.83089437  0.70638437     0.07000
C1145       C  0.28740667  0.84580588  0.70136320    -0.02900
C1146       C  0.28773045  0.87055596  0.68864720    -0.07400
C1147       C  0.25685752  0.88099721  0.68074662     0.06100
C1148       C  0.22511925  0.86610555  0.68591228    -0.02400
Br1149     Br  0.18089465  0.88086601  0.67749364    -0.02100
H1150       H  0.20052128  0.82999432  0.70254796     0.10000
H1151       H  0.31231773  0.88165708  0.68489514     0.08100
Br1152     Br  0.33057563  0.83327487  0.71166285    -0.02500
C1153       C  0.76279009  0.62128428  0.80978128    -0.09200
C1154       C  0.73168415  0.60631045  0.81546062     0.07000
C1155       C  0.69986321  0.61876009  0.80886071    -0.02900
C1156       C  0.69993576  0.64527510  0.79692730    -0.07400
C1157       C  0.73110946  0.65967112  0.79126278     0.06100
C1158       C  0.76268703  0.64757232  0.79780951    -0.02400
Br1159     Br  0.80634344  0.66544602  0.79021310    -0.02100
H1160       H  0.78748236  0.61246877  0.81462982     0.10000
H1161       H  0.67557059  0.65415440  0.79170113     0.08100
Br1162     Br  0.65549172  0.59916937  0.81419602    -0.02500
C1163       C  0.77084038  0.64717555  0.69773656    -0.09200
C1164       C  0.73773132  0.65441513  0.70398377     0.07000
C1165       C  0.70931149  0.63427452  0.69892932    -0.02900
C1166       C  0.71425925  0.60754986  0.68747549    -0.07400
C1167       C  0.74741380  0.60032099  0.68102618     0.06100
C1168       C  0.77600310  0.62015064  0.68649802    -0.02400
Br1169     Br  0.82304558  0.60988436  0.68046296    -0.02100
H1170       H  0.79290964  0.66211409  0.70200158     0.10000
H1171       H  0.69200100  0.59261231  0.68347390     0.08100
Br1172     Br  0.66352854  0.64241494  0.70742497    -0.02500
C1173       C  0.77363134  0.83928809  0.69250041    -0.09200
C1174       C  0.74276420  0.83259001  0.70115270     0.07000
C1175       C  0.71266321  0.85118076  0.69714158    -0.02900
C1176       C  0.71393120  0.87687905  0.68493022    -0.07400
C1177       C  0.74483736  0.88404368  0.67628404     0.06100
C1178       C  0.77494360  0.86471971  0.68009081    -0.02400
Br1179     Br  0.81919432  0.87306030  0.66982144    -0.02100
H1180       H  0.79686247  0.82493461  0.69558431     0.10000
H1181       H  0.69049505  0.89106980  0.68204676     0.08100
Br1182     Br  0.66918929  0.84167821  0.70786832    -0.02500
C1183       C  0.77681599  0.84061651  0.79715157    -0.09200
C1184       C  0.74553492  0.83757074  0.78830613     0.07000
C1185       C  0.71770416  0.85944947  0.79224780    -0.02900
C1186       C  0.72114596  0.88336100  0.80524421    -0.07400
C1187       C  0.75237664  0.88635184  0.81424558     0.06100
C1188       C  0.78052295  0.86483935  0.80999109    -0.02400
Br1189     Br  0.82367953  0.86529800  0.82201762    -0.02100
H1190       H  0.79821823  0.82361242  0.79422661     0.10000
H1191       H  0.69939590  0.89984853  0.80826274     0.08100
Br1192     Br  0.67451354  0.85707978  0.78032569    -0.02500
loop_ 
_geom_bond_atom_site_label_1 
_geom_bond_atom_site_label_2 
_geom_bond_distance 
_geom_bond_site_symmetry_2 
_ccdc_geom_bond_type 
N1            C6   1.353       .  A
N1            C5   1.353       .  A
N1           H33   1.036       .  S
N2            C9   1.351       .  A
N2           C10   1.352       .  A
N3            C8   1.353       .  A
N3            C7   1.354       .  A
N3           H34   1.037       .  S
N4           C11   1.351       .  A
N4           C12   1.350       .  A
C5           C13   1.387       .  A
C5           C21   1.416       .  A
C6           C22   1.415       .  A
C6           C14   1.387       .  A
C7           C15   1.387       .  A
C7           C24   1.416       .  A
C8           C23   1.414       .  A
C8           C16   1.387       .  A
C9           C21   1.415       .  A
C9           C17   1.387       .  A
C10          C24   1.413       .  A
C10          C18   1.385       .  A
C11          C19   1.386       .  A
C11          C22   1.411       .  A
C12          C20   1.386       .  A
C12          C23   1.410       .  A
C13          C14   1.376       .  A
C13          H25   1.082       .  S
C14          H26   1.082       .  S
C15          C16   1.372       .  A
C15          H27   1.082       .  S
C16          H28   1.082       .  S
C17          C18   1.373       .  A
C17          H29   1.082       .  S
C18          H30   1.082       .  S
C19          C20   1.372       .  A
C19          H31   1.082       .  S
C20          H32   1.082       .  S
C21        C1184   1.484       .  S
C22        C1174   1.482       .  S
C23        C1164   1.480       .  S
C24        C1157   1.488       .  S
N35          C40   1.354       .  A
N35          C39   1.353       .  A
N35          H67   1.038       .  S
N36          C43   1.352       .  A
N36          C44   1.352       .  A
N37          C42   1.353       .  A
N37          C41   1.355       .  A
N37          H68   1.039       .  S
N38          C45   1.352       .  A
N38          C46   1.351       .  A
C39          C47   1.388       .  A
C39          C55   1.417       .  A
C40          C56   1.416       .  A
C40          C48   1.386       .  A
C41          C49   1.388       .  A
C41          C58   1.418       .  A
C42          C57   1.414       .  A
C42          C50   1.386       .  A
C43          C55   1.414       .  A
C43          C51   1.386       .  A
C44          C58   1.416       .  A
C44          C52   1.387       .  A
C45          C53   1.386       .  A
C45          C56   1.414       .  A
C46          C54   1.386       .  A
C46          C57   1.412       .  A
C47          C48   1.377       .  A
C47          H59   1.082       .  S
C48          H60   1.082       .  S
C49          C50   1.375       .  A
C49          H61   1.082       .  S
C50          H62   1.082       .  S
C51          C52   1.373       .  A
C51          H63   1.082       .  S
C52          H64   1.082       .  S
C53          C54   1.372       .  A
C53          H65   1.082       .  S
C54          H66   1.082       .  S
C55        C1144   1.486       .  S
C56        C1134   1.490       .  S
C57        C1127   1.485       .  S
C58        C1114   1.496       .  S
N69          C74   1.353       .  A
N69          C73   1.355       .  A
N69         H101   1.039       .  S
N70          C77   1.350       .  A
N70          C78   1.350   1_455  A
N71          C76   1.352       .  A
N71          C75   1.352       .  A
N71         H102   1.039       .  S
N72          C79   1.351       .  A
N72          C80   1.352   1_455  A
C73          C81   1.386       .  A
C73          C89   1.415       .  A
C74          C90   1.418       .  A
C74          C82   1.388       .  A
C75          C83   1.386       .  A
C75          C92   1.412       .  A
C76          C91   1.414       .  A
C76          C84   1.388       .  A
C77          C89   1.412       .  A
C77          C85   1.387       .  A
C78          C92   1.410       .  A
C78          C86   1.386       .  A
C79          C87   1.388       .  A
C79          C90   1.416       .  A
C80          C88   1.385       .  A
C80          C91   1.412       .  A
C81          C82   1.376       .  A
C81          H93   1.082       .  S
C82          H94   1.082       .  S
C83          C84   1.375       .  A
C83          H95   1.082       .  S
C84          H96   1.082       .  S
C85          C86   1.373   1_455  A
C85          H97   1.082       .  S
C86          H98   1.082       .  S
C87          C88   1.375   1_455  A
C87          H99   1.082       .  S
C88         H100   1.082       .  S
C89        C1084   1.488       .  S
C90        C1077   1.492       .  S
C91        C1104   1.485       .  S
C92        C1097   1.482       .  S
N103        C107   1.344       .  A
N103        N104   1.323       .  A
N103       Cu111   2.071       .  S
N104        C105   1.346       .  A
N104       Cu110   2.084       .  S
C105        C106   1.385       .  A
C105        H108   1.082       .  S
C106        C107   1.383       .  A
C106       C1094   1.478       .  S
C107        H109   1.082       .  S
Cu110       N113   2.084       .  S
Cu111       N121   2.070       .  S
Cu112       N114   2.070       .  S
Cu112       N120   2.069       .  S
N113        C117   1.347       .  A
N113        N114   1.322       .  A
N114        C115   1.344       .  A
C115        C116   1.382       .  A
C115        H118   1.082       .  S
C116        C117   1.386       .  A
C116       C1064   1.479       .  S
C117        H119   1.082       .  S
N120        C124   1.344       .  A
N120        N121   1.321       .  A
N121        C122   1.344       .  A
C122        C123   1.385       .  A
C122        H125   1.081       .  S
C123        C124   1.385       .  A
C123       C1167   1.479       .  S
C124        H126   1.082       .  S
N127        C131   1.346       .  A
N127        N128   1.323       .  A
N127       Cu135   2.081       .  S
N128        C129   1.347       .  A
N128       Cu134   2.080       .  S
C129        C130   1.383       .  A
C129        H132   1.082       .  S
C130        C131   1.383       .  A
C130       C1087   1.475       .  S
C131        H133   1.082       .  S
Cu134       N137   2.080       .  S
Cu135       N145   2.080       .  S
Cu136       N138   2.085       .  S
Cu136       N144   2.084       .  S
N137        C141   1.346       .  A
N137        N138   1.322       .  A
N138        C139   1.348       .  A
C139        C140   1.387       .  A
C139        H142   1.082       .  S
C140        C141   1.386       .  A
C140       C1057   1.486       .  S
C141        H143   1.082       .  S
N144        C148   1.344       .  A
N144        N145   1.321       .  A
N145        C146   1.346       .  A
C146        C147   1.392       .  A
C146        H149   1.079       .  S
C147        C148   1.391       .  A
C147       C1117   1.497       .  S
C148        H150   1.081       .  S
N151        C156   1.352       .  A
N151        C155   1.353       .  A
N151        H183   1.039   1_565  S
N152        C159   1.350       .  A
N152        C160   1.350   1_455  A
N153        C158   1.352   1_545  A
N153        C157   1.353       .  A
N153        H184   1.040       .  S
N154        C161   1.351       .  A
N154        C162   1.351   1_455  A
C155        C163   1.388       .  A
C155        C171   1.417   1_565  A
C156        C172   1.412       .  A
C156        C164   1.385       .  A
C157        C165   1.388   1_545  A
C157        C174   1.416       .  A
C158        C173   1.412       .  A
C158        C166   1.386       .  A
C159        C171   1.414       .  A
C159        C167   1.387       .  A
C160        C174   1.412       .  A
C160        C168   1.386       .  A
C161        C169   1.386   1_565  A
C161        C172   1.411       .  A
C162        C170   1.386   1_565  A
C162        C173   1.411       .  A
C163        C164   1.376       .  A
C163        H175   1.082       .  S
C164        H176   1.082       .  S
C165        C166   1.376       .  A
C165        H177   1.082       .  S
C166        H178   1.082       .  S
C167        C168   1.375   1_455  A
C167        H179   1.082       .  S
C168        H180   1.082       .  S
C169        C170   1.373   1_455  A
C169        H181   1.082       .  S
C170        H182   1.082       .  S
C171       C1034   1.492       .  S
C172       C1044   1.485       .  S
C173       C1014   1.482       .  S
C174       C1027   1.489       .  S
N185        C189   1.346       .  A
N185        N186   1.322       .  A
N185       Cu193   2.073       .  S
N186        C187   1.344       .  A
N186       Cu192   2.079   1_565  S
C187        C188   1.386       .  A
C187        H190   1.082       .  S
C188        C189   1.386       .  A
C188       C1147   1.483       .  S
C189        H191   1.081       .  S
Cu192       N195   2.079       .  S
Cu193       N203   2.073       .  S
Cu194       N196   2.077       .  S
Cu194       N202   2.077       .  S
N195        C199   1.346       .  A
N195        N196   1.322       .  A
N196        C197   1.345       .  A
C197        C198   1.386       .  A
C197        H200   1.082       .  S
C198        C199   1.387       .  A
C198       C1007   1.485       .  S
C199        H201   1.081       .  S
N202        C206   1.345       .  A
N202        N203   1.321   1_545  A
N203        C204   1.343       .  A
C204        C205   1.387       .  A
C204        H207   1.082       .  S
C205        C206   1.388   1_565  A
C205       C1037   1.488   1_565  S
C206        H208   1.080       .  S
N209        C213   1.343       .  A
N209        N210   1.320   1_565  A
N209       Cu217   2.064       .  S
N210        C211   1.344       .  A
N210       Cu216   2.081       .  S
C211        C212   1.391       .  A
C211        H214   1.081       .  S
C212        C213   1.387   1_545  A
C212       C1024   1.490       .  S
C213        H215   1.079       .  S
Cu216       N219   2.082       .  S
Cu217       N227   2.064       .  S
Cu218       N220   2.072       .  S
Cu218       N226   2.072   1_545  S
N219        C223   1.347       .  A
N219        N220   1.322       .  A
N220        C221   1.344       .  A
C221        C222   1.383       .  A
C221        H224   1.082       .  S
C222        C223   1.387       .  A
C222        C994   1.482       .  S
C223        H225   1.082       .  S
N226        C230   1.344       .  A
N226        N227   1.321       .  A
N227        C228   1.343       .  A
C228        C229   1.384       .  A
C228        H231   1.081       .  S
C229        C230   1.386       .  A
C229       C1177   1.480       .  S
C230        H232   1.082       .  S
N233        C238   1.354       .  A
N233        C237   1.354   1_554  A
N233        H265   1.039       .  S
N234        C241   1.352       .  A
N234        C242   1.351       .  A
N235        C240   1.353       .  A
N235        C239   1.351   1_554  A
N235        H266   1.038       .  S
N236        C243   1.350       .  A
N236        C244   1.351       .  A
C237        C245   1.386       .  A
C237        C253   1.416       .  A
C238        C254   1.419       .  A
C238        C246   1.388       .  A
C239        C247   1.388       .  A
C239        C256   1.413       .  A
C240        C255   1.413       .  A
C240        C248   1.386       .  A
C241        C253   1.414       .  A
C241        C249   1.387       .  A
C242        C256   1.413       .  A
C242        C250   1.386       .  A
C243        C251   1.388       .  A
C243        C254   1.414       .  A
C244        C252   1.385       .  A
C244        C255   1.410       .  A
C245        C246   1.378   1_556  A
C245        H257   1.082       .  S
C246        H258   1.082       .  S
C247        C248   1.375   1_556  A
C247        H259   1.082       .  S
C248        H260   1.082       .  S
C249        C250   1.372       .  A
C249        H261   1.082       .  S
C250        H262   1.082       .  S
C251        C252   1.372       .  A
C251        H263   1.082       .  S
C252        H264   1.082       .  S
C253        C984   1.490       .  S
C254        C964   1.490       .  S
C255        C954   1.485       .  S
C256        C974   1.480       .  S
N267        C271   1.346       .  A
N267        N268   1.321       .  A
N267       Cu275   2.077       .  S
N268        C269   1.347       .  A
N268       Cu274   2.081       .  S
C269        C270   1.389       .  A
C269        H272   1.081       .  S
C270        C271   1.387       .  A
C270        C987   1.488       .  S
C271        H273   1.082       .  S
Cu274       N277   2.081       .  S
Cu275       N285   2.077       .  S
Cu276       N278   2.098       .  S
Cu276       N284   2.098       .  S
N277        C281   1.344       .  A
N277        N278   1.323       .  A
N278        C279   1.350       .  A
C279        C280   1.392       .  A
C279        H282   1.081       .  S
C280        C281   1.387       .  A
C280        C944   1.495       .  S
C281        H283   1.082       .  S
N284        C288   1.347       .  A
N284        N285   1.322       .  A
N285        C286   1.346       .  A
C286        C287   1.387       .  A
C286        H289   1.080       .  S
C287        C288   1.392       .  A
C287       C1154   1.493       .  S
C288        H290   1.082       .  S
N291        C295   1.345       .  A
N291        N292   1.322       .  A
N291       Cu299   2.072       .  S
N292        C293   1.345       .  A
N292       Cu298   2.073       .  S
C293        C294   1.383       .  A
C293        H296   1.082       .  S
C294        C295   1.384       .  A
C294       C1124   1.477       .  S
C295        H297   1.082       .  S
Cu298       N301   2.074       .  S
Cu299       N309   2.072       .  S
Cu300       N302   2.072       .  S
Cu300       N308   2.071       .  S
N301        C305   1.344       .  A
N301        N302   1.322       .  A
N302        C303   1.346       .  A
C303        C304   1.383       .  A
C303        H306   1.082       .  S
C304        C305   1.382       .  A
C304        C934   1.475       .  S
C305        H307   1.082       .  S
N308        C312   1.344       .  A
N308        N309   1.322       .  A
N309        C310   1.344       .  A
C310        C311   1.384       .  A
C310        H313   1.082       .  S
C311        C312   1.384       .  A
C311        C977   1.479       .  S
C312        H314   1.081       .  S
N315        C320   1.354       .  A
N315        C319   1.354       .  A
N315        H347   1.038       .  S
N316        C323   1.351       .  A
N316        C324   1.351       .  A
N317        C322   1.353       .  A
N317        C321   1.353       .  A
N317        H348   1.040       .  S
N318        C325   1.351       .  A
N318        C326   1.352       .  A
C319        C327   1.385       .  A
C319        C335   1.414       .  A
C320        C336   1.420       .  A
C320        C328   1.389       .  A
C321        C329   1.385       .  A
C321        C338   1.411       .  A
C322        C337   1.419       .  A
C322        C330   1.389       .  A
C323        C335   1.411       .  A
C323        C331   1.386       .  A
C324        C338   1.410       .  A
C324        C332   1.386       .  A
C325        C333   1.387       .  A
C325        C336   1.416       .  A
C326        C334   1.386       .  A
C326        C337   1.416       .  A
C327        C328   1.376       .  A
C327        H339   1.082       .  S
C328        H340   1.082       .  S
C329        C330   1.376       .  A
C329        H341   1.082       .  S
C330        H342   1.082       .  S
C331        C332   1.373       .  A
C331        H343   1.082       .  S
C332        H344   1.082       .  S
C333        C334   1.375       .  A
C333        H345   1.082       .  S
C334        H346   1.082       .  S
C335        C924   1.486       .  S
C336        C907   1.489       .  S
C337        C897   1.496       .  S
C338        C914   1.484       .  S
N349        C354   1.354       .  A
N349        C353   1.354   1_556  A
N349        H381   1.034   1_545  S
N350        C357   1.352       .  A
N350        C358   1.351       .  A
N351        C356   1.353       .  A
N351        C355   1.353   1_556  A
N351        H382   1.033   1_545  S
N352        C359   1.352       .  A
N352        C360   1.352       .  A
C353        C361   1.387       .  A
C353        C369   1.418       .  A
C354        C370   1.415       .  A
C354        C362   1.386       .  A
C355        C363   1.387       .  A
C355        C372   1.416       .  A
C356        C371   1.415       .  A
C356        C364   1.386       .  A
C357        C369   1.415       .  A
C357        C365   1.386   1_545  A
C358        C372   1.414       .  A
C358        C366   1.386   1_545  A
C359        C367   1.386       .  A
C359        C370   1.414       .  A
C360        C368   1.386   1_545  A
C360        C371   1.414       .  A
C361        C362   1.377   1_554  A
C361        H373   1.082       .  S
C362        H374   1.082       .  S
C363        C364   1.375   1_554  A
C363        H375   1.082       .  S
C364        H376   1.082       .  S
C365        C366   1.374       .  A
C365        H377   1.082       .  S
C366        H378   1.082       .  S
C367        C368   1.374   1_545  A
C367        H379   1.082   1_545  S
C368        H380   1.082       .  S
C369        C867   1.495       .  S
C370        C884   1.487       .  S
C371        C874   1.487       .  S
C372        C857   1.486       .  S
N383        C387   1.347   1_545  A
N383        N384   1.323       .  A
N383       Cu391   2.093   1_545  S
N384        C385   1.346       .  A
N384       Cu390   2.074       .  S
C385        C386   1.384       .  A
C385        H388   1.082       .  S
C386        C387   1.388   1_545  A
C386        C887   1.484       .  S
C387        H389   1.082       .  S
Cu390       N393   2.074       .  S
Cu391       N401   2.094       .  S
Cu392       N394   2.081       .  S
Cu392       N400   2.080   1_545  S
N393        C397   1.345       .  A
N393        N394   1.323       .  A
N394        C395   1.347       .  A
C395        C396   1.383       .  A
C395        H398   1.082       .  S
C396        C397   1.380       .  A
C396        C847   1.472       .  S
C397        H399   1.082       .  S
N400        C404   1.346       .  A
N400        N401   1.323       .  A
N401        C402   1.349       .  A
C402        C403   1.388       .  A
C402        H405   1.082       .  S
C403        C404   1.385       .  A
C403       C1137   1.485       .  S
C404        H406   1.082       .  S
N407        C411   1.346       .  A
N407        N408   1.323       .  A
N407       Cu415   2.079       .  S
N408        C409   1.345       .  A
N408       Cu414   2.079       .  S
C409        C410   1.384       .  A
C409        H412   1.082       .  S
C410        C411   1.385       .  A
C410       C1187   1.480       .  S
C411        H413   1.082       .  S
Cu414       N417   2.079   1_565  S
Cu415       N425   2.079       .  S
Cu416       N418   2.081       .  S
Cu416       N424   2.080       .  S
N417        C421   1.348       .  A
N417        N418   1.321       .  A
N418        C419   1.345       .  A
C419        C420   1.388       .  A
C419        H422   1.082       .  S
C420        C421   1.388       .  A
C420        C834   1.488       .  S
C421        H423   1.081       .  S
N424        C428   1.346       .  A
N424        N425   1.322   1_545  A
N425        C426   1.346       .  A
C426        C427   1.387   1_565  A
C426        H429   1.081       .  S
C427        C428   1.386       .  A
C427        C877   1.484       .  S
C428        H430   1.082       .  S
N431        C436   1.357       .  A
N431        C435   1.355       .  A
N431        H463   1.036       .  S
N432        C439   1.353       .  A
N432        C440   1.354       .  A
N433        C438   1.353       .  A
N433        C437   1.354       .  A
N433        H464   1.035       .  S
N434        C441   1.353       .  A
N434        C442   1.353       .  A
C435        C443   1.387       .  A
C435        C451   1.421       .  A
C436        C452   1.421       .  A
C436        C444   1.387       .  A
C437        C445   1.387       .  A
C437        C454   1.417       .  A
C438        C453   1.417       .  A
C438        C446   1.388       .  A
C439        C451   1.418       .  A
C439        C447   1.387       .  A
C440        C454   1.418       .  A
C440        C448   1.386       .  A
C441        C449   1.387       .  A
C441        C452   1.418       .  A
C442        C450   1.386       .  A
C442        C453   1.416       .  A
C443        C444   1.375       .  A
C443        H455   1.082       .  S
C444        H456   1.082       .  S
C445        C446   1.375       .  A
C445        H457   1.082       .  S
C446        H458   1.082       .  S
C447        C448   1.374       .  A
C447        H459   1.082       .  S
C448        H460   1.082       .  S
C449        C450   1.371       .  A
C449        H461   1.082       .  S
C450        H462   1.082       .  S
C451        C824   1.492       .  S
C452        C807   1.494       .  S
C453        C794   1.487       .  S
C454        C814   1.491       .  S
N465        C469   1.347       .  A
N465        N466   1.321   1_545  A
N465       Cu473   2.090       .  S
N466        C467   1.344       .  A
N466       Cu472   2.077       .  S
C467        C468   1.390   1_565  A
C467        H470   1.078       .  S
C468        C469   1.394       .  A
C468        C864   1.499       .  S
C469        H471   1.081       .  S
Cu472       N475   2.077       .  S
Cu473       N483   2.091       .  S
Cu474       N476   2.089       .  S
Cu474       N482   2.089   1_565  S
N475        C479   1.346       .  A
N475        N476   1.321       .  A
N476        C477   1.347       .  A
C477        C478   1.391       .  A
C477        H480   1.082       .  S
C478        C479   1.389       .  A
C478        C784   1.493       .  S
C479        H481   1.080       .  S
N482        C486   1.347       .  A
N482        N483   1.323       .  A
N483        C484   1.348       .  A
C484        C485   1.389       .  A
C484        H487   1.082       .  S
C485        C486   1.388       .  A
C485        C804   1.492       .  S
C486        H488   1.081       .  S
N489        C493   1.345       .  A
N489        N490   1.321       .  A
N489       Cu497   2.083       .  S
N490        C491   1.344       .  A
N490       Cu496   2.070   1_545  S
C491        C492   1.386       .  A
C491        H494   1.082       .  S
C492        C493   1.389       .  A
C492        C904   1.487       .  S
C493        H495   1.081       .  S
Cu496       N499   2.070       .  S
Cu497       N507   2.084       .  S
Cu498       N500   2.072       .  S
Cu498       N506   2.073       .  S
N499        C503   1.343       .  A
N499        N500   1.321       .  A
N500        C501   1.345       .  A
C501        C502   1.386       .  A
C501        H504   1.082       .  S
C502        C503   1.386       .  A
C502        C777   1.483       .  S
C503        H505   1.081       .  S
N506        C510   1.345       .  A
N506        N507   1.322   1_565  A
N507        C508   1.346       .  A
C508        C509   1.387       .  A
C508        H511   1.081       .  S
C509        C510   1.384   1_545  A
C509        C854   1.483       .  S
C510        H512   1.082       .  S
N513        C517   1.345       .  A
N513        N514   1.318       .  A
N513       Cu521   2.077       .  S
N514        C515   1.344       .  A
N514       Cu520   2.075       .  S
C515        C516   1.393       .  A
C515        H518   1.081       .  S
C516        C517   1.393       .  A
C516        C967   1.499       .  S
C517        H519   1.078       .  S
Cu520       N523   2.076       .  S
Cu521       N531   2.078       .  S
Cu522       N524   2.076       .  S
Cu522       N530   2.076       .  S
N523        C527   1.345       .  A
N523        N524   1.323       .  A
N524        C525   1.346       .  A
C525        C526   1.384       .  A
C525        H528   1.082       .  S
C526        C527   1.383       .  A
C526        C764   1.478       .  S
C527        H529   1.082       .  S
N530        C534   1.346       .  A
N530        N531   1.321       .  A
N531        C532   1.343       .  A
C532        C533   1.389       .  A
C532        H535   1.082       .  S
C533        C534   1.390       .  A
C533        C894   1.492       .  S
C534        H536   1.080       .  S
N537        C541   1.344       .  A
N537        N538   1.320       .  A
N537       Cu545   2.082       .  S
N538        C539   1.345       .  A
N538       Cu544   2.066       .  S
C539        C540   1.388       .  A
C539        H542   1.080       .  S
C540        C541   1.391       .  A
C540        C957   1.490       .  S
C541        H543   1.082       .  S
Cu544       N547   2.066       .  S
Cu545       N555   2.083       .  S
Cu546       N548   2.066       .  S
Cu546       N554   2.066       .  S
N547        C551   1.342       .  A
N547        N548   1.322       .  A
N548        C549   1.344       .  A
C549        C550   1.382       .  A
C549        H552   1.082       .  S
C550        C551   1.381       .  A
C550        C754   1.471       .  S
C551        H553   1.082       .  S
N554        C558   1.345       .  A
N554        N555   1.322       .  A
N555        C556   1.345       .  A
C556        C557   1.385       .  A
C556        H559   1.082       .  S
C557        C558   1.382       .  A
C557        C797   1.477       .  S
C558        H560   1.082       .  S
N561        C565   1.345       .  A
N561        N562   1.322       .  A
N561       Cu569   2.082       .  S
N562        C563   1.347       .  A
N562       Cu568   2.082   1_545  S
C563        C564   1.389       .  A
C563        H566   1.081       .  S
C564        C565   1.388       .  A
C564        C827   1.491       .  S
C565        H567   1.082       .  S
Cu568       N571   2.081       .  S
Cu569       N579   2.081       .  S
Cu570       N572   2.076       .  S
Cu570       N578   2.076       .  S
N571        C575   1.346       .  A
N571        N572   1.321       .  A
N572        C573   1.346       .  A
C573        C574   1.388       .  A
C573        H576   1.081       .  S
C574        C575   1.389       .  A
C574        C747   1.489       .  S
C575        H577   1.082       .  S
N578        C582   1.345       .  A
N578        N579   1.323   1_565  A
N579        C580   1.347       .  A
C580        C581   1.386   1_545  A
C580        H583   1.082       .  S
C581        C582   1.384       .  A
C581       C1047   1.481       .  S
C582        H584   1.082       .  S
N585        C589   1.345       .  A
N585        N586   1.322   1_545  A
N585       Cu593   2.080       .  S
N586        C587   1.344       .  A
N586       Cu592   2.069       .  S
C587        C588   1.383   1_565  A
C587        H590   1.082       .  S
C588        C589   1.385       .  A
C588       C1017   1.479       .  S
C589        H591   1.082       .  S
Cu592       N595   2.069       .  S
Cu593       N603   2.079       .  S
Cu594       N596   2.076   1_545  S
Cu594       N602   2.076       .  S
N595        C599   1.345       .  A
N595        N596   1.322       .  A
N596        C597   1.343       .  A
C597        C598   1.385       .  A
C597        H600   1.081       .  S
C598        C599   1.385       .  A
C598        C734   1.481       .  S
C599        H601   1.082       .  S
N602        C606   1.346       .  A
N602        N603   1.322       .  A
N603        C604   1.346       .  A
C604        C605   1.385       .  A
C604        H607   1.082       .  S
C605        C606   1.385       .  A
C605        C927   1.480       .  S
C606        H608   1.082       .  S
N609        C613   1.343       .  A
N609        N610   1.321       .  A
N609       Cu617   2.068       .  S
N610        C611   1.347       .  A
N610       Cu616   2.086       .  S
C611        C612   1.391       .  A
C611        H614   1.082       .  S
C612        C613   1.385       .  A
C612       C1107   1.489       .  S
C613        H615   1.080       .  S
Cu616       N619   2.086       .  S
Cu617       N627   2.068       .  S
Cu618       N620   2.079       .  S
Cu618       N626   2.078       .  S
N619        C623   1.347       .  A
N619        N620   1.323       .  A
N620        C621   1.345       .  A
C621        C622   1.386       .  A
C621        H624   1.081       .  S
C622        C623   1.388       .  A
C622        C724   1.487       .  S
C623        H625   1.082       .  S
N626        C630   1.346       .  A
N626        N627   1.321       .  A
N627        C628   1.344       .  A
C628        C629   1.384       .  A
C628        H631   1.082       .  S
C629        C630   1.386       .  A
C629        C917   1.481       .  S
C630        H632   1.081       .  S
N633        C637   1.343       .  A
N633        N634   1.320       .  A
N633       Cu641   2.077       .  S
N634        C635   1.344       .  A
N634       Cu640   2.067       .  S
C635        C636   1.389       .  A
C635        H638   1.080       .  S
C636        C637   1.390       .  A
C636       C1074   1.491       .  S
C637        H639   1.081       .  S
Cu640       N643   2.068       .  S
Cu641       N651   2.078       .  S
Cu642       N644   2.086       .  S
Cu642       N650   2.086       .  S
N643        C647   1.343       .  A
N643        N644   1.323       .  A
N644        C645   1.347       .  A
C645        C646   1.384       .  A
C645        H648   1.082       .  S
C646        C647   1.381       .  A
C646        C714   1.476       .  S
C647        H649   1.082       .  S
N650        C654   1.348       .  A
N650        N651   1.321       .  A
N651        C652   1.345       .  A
C652        C653   1.387       .  A
C652        H655   1.081       .  S
C653        C654   1.390       .  A
C653        C817   1.491       .  S
C654        H656   1.082       .  S
O657       Cu665   2.021   1_455  S
O657        C667   1.279       .  A
O658       Cu665   2.019       .  S
O658        C668   1.278       .  A
O659       Cu665   2.013       .  S
O659        C669   1.277       .  A
O660       Cu665   2.003   1_455  S
O660        C670   1.278       .  A
O661       Cu666   2.005   1_455  S
O661        C670   1.277       .  A
O662       Cu666   1.996       .  S
O662        C669   1.278       .  A
O663       Cu666   2.010       .  S
O663        C668   1.276       .  A
O664       Cu666   2.011   1_455  S
O664        C667   1.277       .  A
Cu665      Cu666   2.371       .  S
C667        C787   1.475       .  S
C668        C767   1.471       .  S
C669        C774   1.489       .  S
C670        C757   1.483       .  S
O671       Cu679   2.008       .  S
O671        C681   1.276       .  A
O672       Cu679   2.000       .  S
O672        C682   1.278       .  A
O673       Cu679   2.016       .  S
O673        C683   1.277       .  A
O674       Cu679   2.020       .  S
O674        C684   1.279       .  A
O675       Cu680   2.009       .  S
O675        C684   1.277       .  A
O676       Cu680   2.010       .  S
O676        C683   1.279       .  A
O677       Cu680   2.013       .  S
O677        C682   1.277       .  A
O678       Cu680   2.009       .  S
O678        C681   1.277       .  A
Cu679      Cu680   2.370       .  S
C681        C737   1.467       .  S
C682        C717   1.486       .  S
C683        C727   1.495       .  S
C684        C744   1.474       .  S
O685       Cu693   2.003       .  S
O685        C695   1.276       .  A
O686       Cu693   2.008       .  S
O686        C696   1.277       .  A
O687       Cu693   2.020       .  S
O687        C697   1.280       .  A
O688       Cu693   2.019       .  S
O688        C698   1.280       .  A
O689       Cu694   2.021       .  S
O689        C698   1.278       .  A
O690       Cu694   2.009       .  S
O690        C697   1.276       .  A
O691       Cu694   2.018       .  S
O691        C696   1.279       .  A
O692       Cu694   2.017       .  S
O692        C695   1.278       .  A
Cu693      Cu694   2.366       .  S
C695       C1004   1.469       .  S
C696       C1067   1.485       .  S
C697        C997   1.495       .  S
C698       C1054   1.499       .  S
O699       Cu707   2.015   1_455  S
O699        C709   1.278       .  A
O700       Cu707   2.017       .  S
O700        C710   1.278       .  A
O701       Cu707   1.993       .  S
O701        C711   1.273       .  A
O702       Cu707   1.995   1_455  S
O702        C712   1.274       .  A
O703       Cu708   2.030   1_455  S
O703        C712   1.282       .  A
O704       Cu708   2.039       .  S
O704        C711   1.282       .  A
O705       Cu708   2.016       .  S
O705        C710   1.279       .  A
O706       Cu708   2.015   1_455  S
O706        C709   1.278       .  A
Cu707      Cu708   2.362       .  S
C709        C844   1.481       .  S
C710        C947   1.498       .  S
C711        C837   1.498       .  S
C712        C937   1.488       .  S
C713        C714   1.402       .  A
C713        C718   1.401       .  A
C713        H720   1.084       .  S
C714        C715   1.408       .  A
C715        C716   1.396       .  A
C715       Br722   1.920       .  S
C716        C717   1.407       .  A
C716        H721   1.083       .  S
C717        C718   1.417       .  A
C718       Br719   1.921       .  S
C723        C724   1.404       .  A
C723        C728   1.402       .  A
C723        H730   1.083       .  S
C724        C725   1.411       .  A
C725        C726   1.399       .  A
C725       Br732   1.920       .  S
C726        C727   1.409       .  A
C726        H731   1.083       .  S
C727        C728   1.419       .  A
C728       Br729   1.922       .  S
C733        C734   1.408       .  A
C733        C738   1.401       .  A
C733        H740   1.083       .  S
C734        C735   1.413       .  A
C735        C736   1.396       .  A
C735       Br742   1.920       .  S
C736        C737   1.397       .  A
C736        H741   1.081       .  S
C737        C738   1.406       .  A
C738       Br739   1.919       .  S
C743        C744   1.401       .  A
C743        C748   1.401       .  A
C743        H750   1.084       .  S
C744        C745   1.406       .  A
C745        C746   1.400       .  A
C745       Br752   1.916       .  S
C746        C747   1.408       .  A
C746        H751   1.083       .  S
C747        C748   1.416       .  A
C748       Br749   1.920       .  S
C753        C754   1.401       .  A
C753        C758   1.398       .  A
C753        H760   1.084       .  S
C754        C755   1.406       .  A
C755        C756   1.396       .  A
C755       Br762   1.920       .  S
C756        C757   1.407       .  A
C756        H761   1.083       .  S
C757        C758   1.416       .  A
C758       Br759   1.921       .  S
C763        C764   1.403       .  A
C763        C768   1.398       .  A
C763        H770   1.083       .  S
C764        C765   1.412       .  A
C765        C766   1.403       .  A
C765       Br772   1.920       .  S
C766        C767   1.402       .  A
C766        H771   1.084       .  S
C767        C768   1.406       .  A
C768       Br769   1.917       .  S
C773        C774   1.406       .  A
C773        C778   1.394       .  A
C773        H780   1.083       .  S
C774        C775   1.418       .  A
C775        C776   1.402       .  A
C775       Br782   1.922       .  S
C776        C777   1.405       .  A
C776        H781   1.083       .  S
C777        C778   1.411       .  A
C778       Br779   1.921       .  S
C783        C784   1.408       .  A
C783        C788   1.402       .  A
C783        H790   1.083       .  S
C784        C785   1.418       .  A
C785        C786   1.403       .  A
C785       Br792   1.920       .  S
C786        C787   1.400       .  A
C786        H791   1.084       .  S
C787        C788   1.406       .  A
C788       Br789   1.920       .  S
C793        C794   1.402       .  A
C793        C798   1.398       .  A
C793        H800   1.084       .  S
C794        C795   1.408       .  A
C795        C796   1.401       .  A
C795       Br802   1.918       .  S
C796        C797   1.405       .  A
C796        H801   1.083       .  S
C797        C798   1.410       .  A
C798       Br799   1.919       .  S
C803        C804   1.408       .  A
C803        C808   1.402       .  A
C803        H810   1.083       .  S
C804        C805   1.416       .  A
C805        C806   1.403       .  A
C805       Br812   1.919       .  S
C806        C807   1.402       .  A
C806        H811   1.084       .  S
C807        C808   1.407       .  A
C808       Br809   1.918       .  S
C813        C814   1.401       .  A
C813        C818   1.403       .  A
C813        H820   1.083       .  S
C814        C815   1.406       .  A
C815        C816   1.401       .  A
C815       Br822   1.918       .  S
C816        C817   1.407       .  A
C816        H821   1.083       .  S
C817        C818   1.417       .  A
C818       Br819   1.920       .  S
C823        C824   1.402       .  A
C823        C828   1.404       .  A
C823        H830   1.083       .  S
C824        C825   1.406       .  A
C825        C826   1.399       .  A
C825       Br832   1.918       .  S
C826        C827   1.407       .  A
C826        H831   1.083       .  S
C827        C828   1.417       .  A
C828       Br829   1.920       .  S
C833        C834   1.401       .  A
C833        C838   1.398       .  A
C833        H840   1.084       .  S
C834        C835   1.412       .  A
C835        C836   1.406       .  A
C835       Br842   1.919       .  S
C836        C837   1.410       .  A
C836        H841   1.083       .  S
C837        C838   1.422       .  A
C838       Br839   1.925       .  S
C843        C844   1.406       .  A
C843        C848   1.401       .  A
C843        H850   1.083       .  S
C844        C845   1.413       .  A
C845        C846   1.400       .  A
C845       Br852   1.920       .  S
C846        C847   1.400       .  A
C846        H851   1.084       .  S
C847        C848   1.406       .  A
C848       Br849   1.918       .  S
C853        C854   1.406   1_565  A
C853        C858   1.399       .  A
C853        H860   1.083       .  S
C854        C855   1.413       .  A
C855        C856   1.400       .  A
C855       Br862   1.919       .  S
C856        C857   1.402       .  A
C856        H861   1.084       .  S
C857        C858   1.406   1_545  A
C858       Br859   1.918       .  S
C863        C864   1.410       .  A
C863        C868   1.401       .  A
C863        H870   1.082       .  S
C864        C865   1.420   1_545  A
C865        C866   1.401       .  A
C865       Br872   1.920       .  S
C866        C867   1.402   1_565  A
C866        H871   1.084       .  S
C867        C868   1.408       .  A
C868       Br869   1.920       .  S
C873        C874   1.401   1_565  A
C873        C878   1.401       .  A
C873        H880   1.083       .  S
C874        C875   1.406       .  A
C875        C876   1.400       .  A
C875       Br882   1.918       .  S
C876        C877   1.406       .  A
C876        H881   1.083       .  S
C877        C878   1.414   1_545  A
C878       Br879   1.919       .  S
C883        C884   1.402       .  A
C883        C888   1.402       .  A
C883        H890   1.083       .  S
C884        C885   1.406   1_545  A
C885        C886   1.399       .  A
C885       Br892   1.918       .  S
C886        C887   1.405   1_565  A
C886        H891   1.083       .  S
C887        C888   1.414       .  A
C888       Br889   1.919       .  S
C893        C894   1.407       .  A
C893        C898   1.398       .  A
C893        H900   1.082       .  S
C894        C895   1.417       .  A
C895        C896   1.401       .  A
C895       Br902   1.920       .  S
C896        C897   1.405       .  A
C896        H901   1.084       .  S
C897        C898   1.410       .  A
C898       Br899   1.921       .  S
C903        C904   1.408       .  A
C903        C908   1.400       .  A
C903        H910   1.083       .  S
C904        C905   1.414       .  A
C905        C906   1.399       .  A
C905       Br912   1.920       .  S
C906        C907   1.402       .  A
C906        H911   1.084       .  S
C907        C908   1.407       .  A
C908       Br909   1.918       .  S
C913        C914   1.401       .  A
C913        C918   1.400       .  A
C913        H920   1.083       .  S
C914        C915   1.406       .  A
C915        C916   1.399       .  A
C915       Br922   1.918       .  S
C916        C917   1.405       .  A
C916        H921   1.083       .  S
C917        C918   1.413       .  A
C918       Br919   1.919       .  S
C923        C924   1.403       .  A
C923        C928   1.403       .  A
C923        H930   1.083       .  S
C924        C925   1.406       .  A
C925        C926   1.398       .  A
C925       Br932   1.918       .  S
C926        C927   1.404       .  A
C926        H931   1.083       .  S
C927        C928   1.412       .  A
C928       Br929   1.919       .  S
C933        C934   1.400       .  A
C933        C938   1.401       .  A
C933        H940   1.084       .  S
C934        C935   1.407       .  A
C935        C936   1.399       .  A
C935       Br942   1.919       .  S
C936        C937   1.406       .  A
C936        H941   1.083       .  S
C937        C938   1.420       .  A
C938       Br939   1.923       .  S
C943        C944   1.406       .  A
C943        C948   1.402       .  A
C943        H950   1.083       .  S
C944        C945   1.413       .  A
C945        C946   1.403       .  A
C945       Br952   1.919       .  S
C946        C947   1.410       .  A
C946        H951   1.083       .  S
C947        C948   1.418       .  A
C948       Br949   1.923       .  S
C953        C954   1.400       .  A
C953        C958   1.402       .  A
C953        H960   1.084       .  S
C954        C955   1.404       .  A
C955        C956   1.396       .  A
C955       Br962   1.918       .  S
C956        C957   1.407       .  A
C956        H961   1.082       .  S
C957        C958   1.419       .  A
C958       Br959   1.920       .  S
C963        C964   1.401       .  A
C963        C968   1.400       .  A
C963        H970   1.084       .  S
C964        C965   1.404       .  A
C965        C966   1.398       .  A
C965       Br972   1.920       .  S
C966        C967   1.412       .  A
C966        H971   1.081       .  S
C967        C968   1.421       .  A
C968       Br969   1.919       .  S
C973        C974   1.400       .  A
C973        C978   1.399       .  A
C973        H980   1.083       .  S
C974        C975   1.404       .  A
C975        C976   1.396       .  A
C975       Br982   1.919       .  S
C976        C977   1.405       .  A
C976        H981   1.083       .  S
C977        C978   1.414       .  A
C978       Br979   1.919       .  S
C983        C984   1.401       .  A
C983        C988   1.402       .  A
C983        H990   1.083       .  S
C984        C985   1.408       .  A
C985        C986   1.401       .  A
C985       Br992   1.919       .  S
C986        C987   1.407       .  A
C986        H991   1.083       .  S
C987        C988   1.415       .  A
C988       Br989   1.919       .  S
C993        C994   1.401       .  A
C993        C998   1.400       .  A
C993       H1000   1.084       .  S
C994        C995   1.409       .  A
C995        C996   1.401       .  A
C995      Br1002   1.920       .  S
C996        C997   1.409       .  A
C996       H1001   1.083       .  S
C997        C998   1.420       .  A
C998       Br999   1.923       .  S
C1003      C1004   1.400       .  A
C1003      C1008   1.401       .  A
C1003      H1010   1.084       .  S
C1004      C1005   1.405       .  A
C1005      C1006   1.400       .  A
C1005     Br1012   1.920       .  S
C1006      C1007   1.407       .  A
C1006      H1011   1.083       .  S
C1007      C1008   1.415       .  A
C1008     Br1009   1.920       .  S
C1013      C1014   1.400   1_545  A
C1013      C1018   1.398       .  A
C1013      H1020   1.084       .  S
C1014      C1015   1.406       .  A
C1015      C1016   1.399       .  A
C1015     Br1022   1.918       .  S
C1016      C1017   1.406   1_565  A
C1016      H1021   1.083       .  S
C1017      C1018   1.412       .  A
C1018     Br1019   1.919       .  S
C1023      C1024   1.408       .  A
C1023      C1028   1.397       .  A
C1023      H1030   1.082       .  S
C1024      C1025   1.419   1_545  A
C1025      C1026   1.399       .  A
C1025     Br1032   1.920       .  S
C1026      C1027   1.401   1_565  A
C1026      H1031   1.084       .  S
C1027      C1028   1.407       .  A
C1028     Br1029   1.919       .  S
C1033      C1034   1.404       .  A
C1033      C1038   1.400       .  A
C1033      H1040   1.084       .  S
C1034      C1035   1.409   1_545  A
C1035      C1036   1.396       .  A
C1035     Br1042   1.921       .  S
C1036      C1037   1.407   1_565  A
C1036      H1041   1.082       .  S
C1037      C1038   1.415       .  A
C1038     Br1039   1.920       .  S
C1043      C1044   1.401   1_545  A
C1043      C1048   1.399       .  A
C1043      H1050   1.084       .  S
C1044      C1045   1.406       .  A
C1045      C1046   1.400       .  A
C1045     Br1052   1.917       .  S
C1046      C1047   1.406       .  A
C1046      H1051   1.083       .  S
C1047      C1048   1.412   1_565  A
C1048     Br1049   1.919       .  S
C1053      C1054   1.409       .  A
C1053      C1058   1.401       .  A
C1053      H1060   1.083       .  S
C1054      C1055   1.420       .  A
C1055      C1056   1.404       .  A
C1055     Br1062   1.922       .  S
C1056      C1057   1.403       .  A
C1056      H1061   1.084       .  S
C1057      C1058   1.410       .  A
C1058     Br1059   1.920       .  S
C1063      C1064   1.403       .  A
C1063      C1068   1.401       .  A
C1063      H1070   1.084       .  S
C1064      C1065   1.409       .  A
C1065      C1066   1.400       .  A
C1065     Br1072   1.919       .  S
C1066      C1067   1.406       .  A
C1066      H1071   1.083       .  S
C1067      C1068   1.414       .  A
C1068     Br1069   1.921       .  S
C1073      C1074   1.408       .  A
C1073      C1078   1.397       .  A
C1073      H1080   1.082       .  S
C1074      C1075   1.417       .  A
C1075      C1076   1.400       .  A
C1075     Br1082   1.920       .  S
C1076      C1077   1.403       .  A
C1076      H1081   1.084       .  S
C1077      C1078   1.409       .  A
C1078     Br1079   1.921       .  S
C1083      C1084   1.404       .  A
C1083      C1088   1.400       .  A
C1083      H1090   1.083       .  S
C1084      C1085   1.408       .  A
C1085      C1086   1.400       .  A
C1085     Br1092   1.918       .  S
C1086      C1087   1.403       .  A
C1086      H1091   1.083       .  S
C1087      C1088   1.408       .  A
C1088     Br1089   1.918       .  S
C1093      C1094   1.405       .  A
C1093      C1098   1.399       .  A
C1093      H1100   1.083       .  S
C1094      C1095   1.412       .  A
C1095      C1096   1.399       .  A
C1095     Br1102   1.919       .  S
C1096      C1097   1.401       .  A
C1096      H1101   1.084       .  S
C1097      C1098   1.406       .  A
C1098     Br1099   1.918       .  S
C1103      C1104   1.399       .  A
C1103      C1108   1.399       .  A
C1103      H1110   1.084       .  S
C1104      C1105   1.405       .  A
C1105      C1106   1.400       .  A
C1105     Br1112   1.917       .  S
C1106      C1107   1.408       .  A
C1106      H1111   1.083       .  S
C1107      C1108   1.418       .  A
C1108     Br1109   1.920       .  S
C1113      C1114   1.403       .  A
C1113      C1118   1.401       .  A
C1113      H1120   1.084       .  S
C1114      C1115   1.408       .  A
C1115      C1116   1.400       .  A
C1115     Br1122   1.920       .  S
C1116      C1117   1.410       .  A
C1116      H1121   1.082       .  S
C1117      C1118   1.419       .  A
C1118     Br1119   1.919       .  S
C1123      C1124   1.404       .  A
C1123      C1128   1.399       .  A
C1123      H1130   1.083       .  S
C1124      C1125   1.411       .  A
C1125      C1126   1.398       .  A
C1125     Br1132   1.919       .  S
C1126      C1127   1.401       .  A
C1126      H1131   1.084       .  S
C1127      C1128   1.408       .  A
C1128     Br1129   1.918       .  S
C1133      C1134   1.402       .  A
C1133      C1138   1.401       .  A
C1133      H1140   1.083       .  S
C1134      C1135   1.407       .  A
C1135      C1136   1.401       .  A
C1135     Br1142   1.918       .  S
C1136      C1137   1.405       .  A
C1136      H1141   1.083       .  S
C1137      C1138   1.414       .  A
C1138     Br1139   1.919       .  S
C1143      C1144   1.402       .  A
C1143      C1148   1.401       .  A
C1143      H1150   1.084       .  S
C1144      C1145   1.405       .  A
C1145      C1146   1.398       .  A
C1145     Br1152   1.918       .  S
C1146      C1147   1.406       .  A
C1146      H1151   1.083       .  S
C1147      C1148   1.414       .  A
C1148     Br1149   1.919       .  S
C1153      C1154   1.407       .  A
C1153      C1158   1.399       .  A
C1153      H1160   1.083       .  S
C1154      C1155   1.419       .  A
C1155      C1156   1.403       .  A
C1155     Br1162   1.919       .  S
C1156      C1157   1.400       .  A
C1156      H1161   1.084       .  S
C1157      C1158   1.405       .  A
C1158     Br1159   1.918       .  S
C1163      C1164   1.400       .  A
C1163      C1168   1.396       .  A
C1163      H1170   1.084       .  S
C1164      C1165   1.404       .  A
C1165      C1166   1.398       .  A
C1165     Br1172   1.918       .  S
C1166      C1167   1.407       .  A
C1166      H1171   1.083       .  S
C1167      C1168   1.413       .  A
C1168     Br1169   1.919       .  S
C1173      C1174   1.400       .  A
C1173      C1178   1.400       .  A
C1173      H1180   1.083       .  S
C1174      C1175   1.404       .  A
C1175      C1176   1.396       .  A
C1175     Br1182   1.918       .  S
C1176      C1177   1.405       .  A
C1176      H1181   1.083       .  S
C1177      C1178   1.415       .  A
C1178     Br1179   1.920       .  S
C1183      C1184   1.401       .  A
C1183      C1188   1.399       .  A
C1183      H1190   1.084       .  S
C1184      C1185   1.406       .  A
C1185      C1186   1.399       .  A
C1185     Br1192   1.918       .  S
C1186      C1187   1.405       .  A
C1186      H1191   1.083       .  S
C1187      C1188   1.412       .  A
C1188     Br1189   1.919       .  S
