geometry optimzed in LAMMPS
_audit_creation_date              2020-11-30 
_audit_creation_method            'lammps2cif' 
_symmetry_space_group_name_H-M    'P1' 
_symmetry_Int_Tables_number       1 
_symmetry_cell_setting            triclinic 
loop_ 
_symmetry_equiv_pos_as_xyz 
  x,y,z 
_cell_length_a                    34.97408972 
_cell_length_b                    34.25323583430257 
_cell_length_c                    34.407349029381294 
_cell_angle_alpha                 89.47770243279464 
_cell_angle_beta                  90.53183326765595 
_cell_angle_gamma                 90.2893945782113 
loop_ 
_atom_site_label 
_atom_site_type_symbol 
_atom_site_fract_x 
_atom_site_fract_y 
_atom_site_fract_z 
_atom_site_charge 
Zr1        Zr  0.65473851  0.64966484  0.55908870     2.17500
O2          O  0.63537150  0.63310147  0.49305215    -0.52300
O3          O  0.70692792  0.69027540  0.53740920    -0.75500
O4          O  0.60929003  0.70038328  0.53307672    -0.82300
O5          O  0.71336294  0.55692746  0.57643822    -0.84100
O6          O  0.61038194  0.74494546  0.58025616    -0.79700
O7          O  0.69363310  0.59826577  0.52825773    -0.91300
O8          O  0.74531247  0.70760090  0.58837723    -0.77300
O9          O  0.66218398  0.70305089  0.60249499    -0.86800
O10         O  0.70616526  0.63468624  0.60310348    -0.86500
O11         O  0.59446742  0.65272623  0.59236374    -0.73200
O12         O  0.63727148  0.58973662  0.59196456    -0.85300
Zr13       Zr  0.63414906  0.63318328  0.71422620     2.26400
Zr14       Zr  0.60344981  0.70565956  0.63659670     2.06300
Zr15       Zr  0.68771049  0.57678812  0.63751418     2.10000
Zr16       Zr  0.71232070  0.68825086  0.64670307     1.78800
O17         O  0.66250436  0.51085288  0.64622326    -0.94200
O18         O  0.71481918  0.75933791  0.64885962    -0.42000
O19         O  0.69338904  0.63076417  0.68019134    -0.78600
O20         O  0.65358321  0.69302951  0.68228857    -0.97300
O21         O  0.58431781  0.64758418  0.66931029    -0.90600
O22         O  0.62853604  0.57879154  0.67139265    -0.93400
C23         C  0.73669553  0.70641299  0.55222905     1.00300
C24         C  0.71217287  0.56807144  0.54102457     1.13300
C25         C  0.59757818  0.73273543  0.54810798     1.04000
O26         O  0.61047499  0.77376924  0.65527183    -0.95600
O27         O  0.57039759  0.72042938  0.69383875    -0.91300
O28         O  0.58871123  0.67913820  0.74259633    -0.84500
C29         C  0.56845041  0.70728270  0.72840788     1.10700
O30         O  0.55379182  0.56841606  0.56538580    -0.97600
Zr31       Zr  0.57817522  0.59402758  0.62663948     1.88900
O32         O  0.58201838  0.59074730  0.73563631    -0.74200
O33         O  0.53768248  0.71526844  0.61455384    -0.53500
O34         O  0.51346532  0.61567670  0.61148412    -0.98100
O35         O  0.57231321  0.52301373  0.62822764    -0.55400
O36         O  0.54097229  0.58172263  0.68475465    -0.74700
C37         C  0.55038048  0.57832192  0.72068906     0.97600
O38         O  0.65756357  0.65104123  0.77864194    -0.63500
O39         O  0.74276899  0.53385699  0.64627984    -0.58300
O40         O  0.67838912  0.58451109  0.74218978    -0.95000
O41         O  0.72392994  0.58547059  0.69673225    -0.93500
O42         O  0.77697109  0.66385759  0.65684727    -0.93800
O43         O  0.74356033  0.71077388  0.70595593    -0.92600
C44         C  0.71144805  0.57428428  0.72962786     1.16500
H45         H  0.72998549  0.63080046  0.58971501     0.32400
H46         H  0.65534118  0.71387763  0.70094656     0.43300
H47         H  0.62381683  0.55510882  0.68602847     0.36800
H48         H  0.57352754  0.65806027  0.57464032     0.33300
H49         H  0.70605416  0.76815494  0.62279100     0.25100
H50         H  0.52358245  0.69222954  0.62455595     0.31000
H51         H  0.49705319  0.59261902  0.61673252     0.36900
H52         H  0.77427691  0.63507688  0.65670146     0.31400
H53         H  0.73707027  0.51000873  0.63119847     0.30200
H54         H  0.65754998  0.50163365  0.61943936     0.31900
H55         H  0.54444457  0.51795048  0.62659954     0.30900
H56         H  0.73687278  0.69083075  0.72580927     0.34900
H57         H  0.66160137  0.67965296  0.77723068     0.27600
H58         H  0.63975725  0.65715021  0.47750578     0.31100
H59         H  0.55816863  0.58967359  0.54621780     0.34700
H60         H  0.76400526  0.54681785  0.63226230     0.27300
H61         H  0.63545347  0.64743184  0.79609641     0.40200
H62         H  0.58681527  0.78657486  0.64572225     0.30200
H63         H  0.69389749  0.76678171  0.66644935     0.37900
H64         H  0.57936911  0.51490632  0.65500788     0.29700
H65         H  0.52808180  0.73732268  0.63003354     0.29800
H66         H  0.60721146  0.63023397  0.49411631     0.30000
Zr67       Zr  0.90541440  0.61992951  0.27579903     2.17500
O68         O  0.87896962  0.63939241  0.21284253    -0.52300
O69         O  0.94946351  0.57332597  0.24897923    -0.75500
O70         O  0.94627643  0.67385164  0.24677983    -0.82300
O71         O  0.81144593  0.57770026  0.29765514    -0.84100
O72         O  0.97463641  0.70449533  0.29797156    -0.79700
O73         O  0.85549372  0.57284703  0.25142463    -0.91300
O74         O  0.98293147  0.54599216  0.29948096    -0.77300
O75         O  0.95920919  0.62417344  0.31914398    -0.86800
O76         O  0.90624224  0.56329805  0.31757863    -0.86500
O77         O  0.89681758  0.67858556  0.31244498    -0.73200
O78         O  0.84752305  0.62100351  0.31241676    -0.85300
Zr79       Zr  0.89129850  0.62853771  0.43442505     2.26400
Zr80       Zr  0.94943941  0.68075891  0.35731738     2.06300
Zr81       Zr  0.84911717  0.56506076  0.35469210     2.10000
Zr82       Zr  0.95913392  0.56864170  0.36099011     1.78800
O83         O  0.79277057  0.52326476  0.35451875    -0.94200
O84         O  0.02718074  0.58452506  0.36333235    -0.42000
O85         O  0.90165109  0.56908230  0.39907171    -0.78600
O86         O  0.95055828  0.62552044  0.39955742    -0.97300
O87         O  0.89145827  0.68418233  0.39225214    -0.90600
O88         O  0.83862880  0.62333189  0.39023155    -0.93400
C89         C  0.97439675  0.54984907  0.26335437     1.00300
C90         C  0.82234160  0.56382471  0.26562472     1.13300
C91         C  0.96882697  0.70031060  0.26166467     1.04000
O92         O  0.01872070  0.67931754  0.36501572    -0.95600
O93         O  0.96807990  0.70504022  0.41930323    -0.91300
O94         O  0.93572230  0.67491286  0.46820514    -0.84500
C95         C  0.96088188  0.69962835  0.45525472     1.10700
O96         O  0.80515053  0.70180076  0.29009423    -0.97600
Zr97       Zr  0.83896625  0.67897278  0.34825058     1.88900
O98         O  0.84477877  0.67371903  0.45885227    -0.74200
O99         O  0.94375988  0.75168774  0.35692523    -0.53500
O100        O  0.84807074  0.74883655  0.33737745    -0.98100
O101        O  0.77087055  0.66309736  0.34643136    -0.55400
O102        O  0.81834280  0.70729967  0.40785531    -0.74700
C103        C  0.82267118  0.69970414  0.44404705     0.97600
O104        O  0.91456563  0.59897655  0.49485337    -0.63500
O105        O  0.87062437  0.49812552  0.34458046    -0.58300
O106        O  0.84070846  0.58625161  0.46276980    -0.95000
O107        O  0.81700197  0.54876798  0.41382595    -0.93500
O108        O  0.95147932  0.49802844  0.36515356    -0.93800
O109        O  0.99246102  0.53938012  0.41645040    -0.92600
C110        C  0.81776615  0.55991499  0.44905138     1.16500
H111        H  0.90752159  0.53991171  0.30223236     0.32400
H112        H  0.97187257  0.62747749  0.41749422     0.43300
H113        H  0.81439459  0.62276879  0.40340189     0.36800
H114        H  0.89697873  0.70117870  0.29542686     0.33300
H115        H  0.04037083  0.55909367  0.36158679     0.25100
H116        H  0.96988438  0.76158450  0.35183291     0.31000
H117        H  0.82907500  0.76168078  0.35408046     0.36900
H118        H  0.97503831  0.48736419  0.35365747     0.31400
H119        H  0.85729531  0.48215094  0.36444715     0.30200
H120        H  0.79509387  0.50645592  0.33143297     0.31900
H121        H  0.76095411  0.67078847  0.37208138     0.30900
H122        H  0.99411869  0.56038547  0.43598177     0.34900
H123        H  0.90945319  0.57068227  0.49196478     0.27600
H124        H  0.89986585  0.63520828  0.19414709     0.31900
H125        H  0.78696517  0.72178719  0.29908535     0.34700
H126        H  0.85922703  0.48999346  0.31945038     0.27300
H127        H  0.94276644  0.60115670  0.49347500     0.40200
H128        H  0.02851174  0.67008720  0.33983367     0.30200
H129        H  0.03242642  0.59743726  0.33807292     0.37900
H130        H  0.76966083  0.63420616  0.34666786     0.29700
H131        H  0.92908843  0.75813305  0.33299942     0.29800
H132        H  0.87620216  0.66810256  0.21422093     0.30000
Zr133      Zr  0.88574549  0.37829338  0.17431178     2.17500
O134        O  0.86593487  0.36306144  0.24051954    -0.52300
O135        O  0.93564436  0.42484897  0.19030430    -0.75500
O136        O  0.92936443  0.33237995  0.20747404    -0.82300
O137        O  0.79187117  0.43166503  0.16538074    -0.84100
O138        O  0.94859616  0.29346659  0.15841288    -0.79700
O139        O  0.84539121  0.42946252  0.20289573    -0.91300
O140        O  0.96321047  0.44754570  0.13468294    -0.77300
O141        O  0.93479449  0.37304864  0.12657638    -0.86800
O142        O  0.87674602  0.43000249  0.12839163    -0.86500
O143        O  0.87661421  0.31521236  0.14481584    -0.73200
O144        O  0.82298198  0.36817930  0.14763168    -0.85300
Zr145      Zr  0.85290695  0.35270392  0.02232184     2.26400
Zr146      Zr  0.92472794  0.31210647  0.09545199     2.06300
Zr147      Zr  0.81461275  0.41935793  0.10107894     2.10000
Zr148      Zr  0.92512635  0.42417116  0.08051674     1.78800
O149        O  0.74571532  0.41472814  0.09032055    -0.94200
O150        O  0.99120727  0.41709462  0.06002838    -0.42000
O151        O  0.86318442  0.41376528  0.05360235    -0.78600
O152        O  0.91704661  0.36294010  0.04783470    -0.97300
O153        O  0.86242130  0.30191784  0.06896318    -0.90600
O154        O  0.80386473  0.35782790  0.07003893    -0.93400
C155        C  0.96028412  0.44540649  0.17170641     1.00300
C156        C  0.81122128  0.44159417  0.19527934     1.13300
C157        C  0.94803419  0.30318604  0.19418507     1.04000
O158        O  0.98746535  0.32773054  0.06904972    -0.95600
O159        O  0.90566874  0.26819834  0.04480117    -0.91300
O160        O  0.89930064  0.30694631  0.99281841    -0.84500
C161        C  0.91285487  0.27598605  0.00939273     1.10700
O162        O  0.78737801  0.29302792  0.18042188    -0.97600
Zr163      Zr  0.81443175  0.30647601  0.11661592     1.88900
O164        O  0.80481703  0.30163686  0.01102144    -0.74200
O165        O  0.95788684  0.24949625  0.09468380    -0.53500
O166        O  0.82684584  0.23952001  0.13743870    -0.98100
O167        O  0.74502775  0.31294327  0.11675838    -0.55400
O168        O  0.79610131  0.26314536  0.06441767    -0.74700
C169        C  0.79135496  0.27101348  0.02832516     0.97600
O170        O  0.85293233  0.36305759  0.95217676    -0.63500
O171        O  0.80733589  0.48963319  0.10965263    -0.58300
O172        O  0.81882926  0.41143685  0.99490031    -0.95000
O173        O  0.80909145  0.45630470  0.04215405    -0.93500
O174        O  0.91236919  0.49404598  0.07900638    -0.93800
O175        O  0.93548411  0.45519574  0.01749176    -0.92600
C176        C  0.80784435  0.44555629  0.00683356     1.16500
H177        H  0.87849842  0.45518847  0.14067907     0.32400
H178        H  0.93564753  0.36102196  0.02735871     0.43300
H179        H  0.77888314  0.35645269  0.05799551     0.36800
H180        H  0.87923313  0.29463603  0.16398507     0.33300
H181        H  0.00120640  0.44414159  0.05816528     0.25100
H182        H  0.98337235  0.25387188  0.10667239     0.31000
H183        H  0.85258202  0.23368655  0.12730744     0.36900
H184        H  0.93791244  0.50657356  0.08049309     0.31400
H185        H  0.78062752  0.49319308  0.11818109     0.30200
H186        H  0.74056624  0.43082732  0.06682618     0.31900
H187        H  0.73679617  0.31105942  0.08923706     0.30900
H188        H  0.92795533  0.43506492  0.99837522     0.34900
H189        H  0.88024131  0.36520690  0.94508256     0.27600
H190        H  0.88843989  0.36873176  0.25724848     0.31900
H191        H  0.76992197  0.27047118  0.17681361     0.34700
H192        H  0.82320561  0.49659768  0.13254775     0.27300
H193        H  0.84423481  0.33791371  0.94112544     0.40200
H194        H  0.00541879  0.32415445  0.09119649     0.30200
H195        H  0.00464677  0.40576425  0.08289666     0.37900
H196        H  0.74045942  0.34048153  0.12378348     0.29700
H197        H  0.94406278  0.23238318  0.11323178     0.29800
H198        H  0.86294246  0.33429712  0.24146890     0.30000
C199        C  0.76017752  0.53517159  0.96845925     0.79200
N200        N  0.73530436  0.51822504  0.94323185    -0.79100
C201        C  0.73772677  0.47983093  0.93532901     0.81700
N202        N  0.76448510  0.45759921  0.95335290    -0.79000
C203        C  0.78844697  0.47308800  0.98002440     0.81800
N204        N  0.78616385  0.51226148  0.98799809    -0.80700
C205        C  0.04533194  0.48347431  0.22318876     0.79200
N206        N  0.02970760  0.51391250  0.24215966    -0.79100
C207        C  0.99234406  0.52257946  0.23737826     0.81700
N208        N  0.97012360  0.50033439  0.21398339    -0.79000
C209        C  0.98543273  0.46996691  0.19475929     0.81800
N210        N  0.02301906  0.46121151  0.19949359    -0.80700
Zr211      Zr  0.61181787  0.29458781  0.87888888     2.17500
O212        O  0.62646262  0.23022514  0.85330404    -0.52300
O213        O  0.57005904  0.26899221  0.92903308    -0.75500
O214        O  0.65980628  0.25963338  0.91831654    -0.82300
O215        O  0.55873746  0.31313610  0.78330010    -0.84100
O216        O  0.69522032  0.30921644  0.94316486    -0.79700
O217        O  0.56817338  0.26679021  0.83004333    -0.91300
O218        O  0.54864199  0.31916226  0.96567656    -0.77300
O219        O  0.61673940  0.33667664  0.93367720    -0.86800
O220        O  0.55793744  0.33726892  0.87655343    -0.86500
O221        O  0.67190812  0.32833953  0.87189906    -0.73200
O222        O  0.61734520  0.33000324  0.81879550    -0.85300
Zr223      Zr  0.62819453  0.44929668  0.86181090     2.26400
Zr224      Zr  0.67410190  0.37307860  0.92552854     2.06300
Zr225      Zr  0.56409417  0.37362293  0.81703742     2.10000
Zr226      Zr  0.56373885  0.37947434  0.93096342     1.78800
O227        O  0.55950964  0.38978579  0.74803157    -0.94200
O228        O  0.57163139  0.39114021  0.00038017    -0.42000
O229        O  0.56871699  0.41585782  0.87140527    -0.78600
O230        O  0.62144443  0.41739972  0.92434324    -0.97300
O231        O  0.68033639  0.40575048  0.86498219    -0.90600
O232        O  0.62340629  0.40717282  0.80754977    -0.93400
C233        C  0.55198200  0.28275159  0.95810852     1.00300
C234        C  0.55599079  0.27830545  0.79638701     1.13300
C235        C  0.68760774  0.27301139  0.93899259     1.04000
O236        O  0.66223384  0.39691691  0.99084693    -0.95600
O237        O  0.71457994  0.42526623  0.90317306    -0.91300
O238        O  0.67628496  0.47703133  0.90520994    -0.84500
C239        C  0.70828504  0.46045066  0.91268901     1.10700
O240        O  0.69100286  0.30546680  0.77433778    -0.97600
Zr241      Zr  0.67684883  0.36366001  0.81171873     1.88900
O242        O  0.67791191  0.46975999  0.81717419    -0.74200
O243        O  0.73474264  0.37461918  0.96137988    -0.53500
O244        O  0.74161018  0.34059923  0.82488807    -0.98100
O245        O  0.67119173  0.37620020  0.74201936    -0.55400
O246        O  0.71799319  0.42032257  0.80221266    -0.74700
C247        C  0.70917282  0.45651302  0.80312360     0.97600
O248        O  0.61335187  0.51770951  0.87295054    -0.63500
O249        O  0.49655910  0.35576434  0.81826989    -0.58300
O250        O  0.57750300  0.48068943  0.82368370    -0.95000
O251        O  0.53212012  0.43571763  0.80781333    -0.93500
O252        O  0.49496495  0.37622157  0.91941858    -0.93800
O253        O  0.53133737  0.43782122  0.95315453    -0.92600
C254        C  0.54485525  0.47080347  0.80910190     1.16500
H255        H  0.53428670  0.32258596  0.87725635     0.32400
H256        H  0.62317154  0.43655729  0.94470564     0.43300
H257        H  0.62302333  0.42206848  0.78364786     0.36800
H258        H  0.69287850  0.31015435  0.87239139     0.33300
H259        H  0.54629255  0.38517256  0.01167133     0.25100
H260        H  0.73090129  0.35909366  0.98545710     0.31000
H261        H  0.75728953  0.35149199  0.80353806     0.36900
H262        H  0.48502038  0.35936086  0.94058818     0.31400
H263        H  0.48424333  0.37655656  0.83345948     0.30200
H264        H  0.53184345  0.39308482  0.74267393     0.31900
H265        H  0.67218889  0.40494729  0.73890324     0.30900
H266        H  0.54500836  0.45967236  0.94023290     0.34900
H267        H  0.60969993  0.51968324  0.90135859     0.27600
H268        H  0.62285585  0.21161681  0.87517550     0.31900
H269        H  0.71264519  0.31283961  0.75737740     0.34700
H270        H  0.48731896  0.36005290  0.79129087     0.27300
H271        H  0.63741195  0.53212082  0.86773344     0.40200
H272        H  0.65966465  0.37299886  0.00699139     0.30200
H273        H  0.58821375  0.36970002  0.00992622     0.37900
H274        H  0.64448930  0.36898077  0.73535137     0.29700
H275        H  0.75280551  0.35921278  0.94577356     0.29800
H276        H  0.65433782  0.23053814  0.84848683     0.30000
Zr277      Zr  0.29118721  0.10466321  0.87988694     2.17500
O278        O  0.22717443  0.12806170  0.86374889    -0.52300
O279        O  0.26920369  0.05358820  0.92543799    -0.75500
O280        O  0.25860109  0.06284352  0.83004309    -0.82300
O281        O  0.30893300  0.20497383  0.91948366    -0.84100
O282        O  0.30868529  0.03283040  0.80197685    -0.79700
O283        O  0.26617245  0.15574099  0.92295959    -0.91300
O284        O  0.31876138  0.01550560  0.94568807    -0.77300
O285        O  0.33310526  0.05023905  0.88185410    -0.86800
O286        O  0.33170351  0.11066523  0.93622667    -0.86500
O287        O  0.32731340  0.11121306  0.82077916    -0.73200
O288        O  0.32735208  0.16424636  0.87154846    -0.85300
Zr289      Zr  0.44668398  0.12102156  0.87224408     2.26400
Zr290      Zr  0.36940653  0.05684348  0.82467673     2.06300
Zr291      Zr  0.36749639  0.17007002  0.92791375     2.10000
Zr292      Zr  0.37415631  0.05648770  0.93692139     1.78800
O293        O  0.38379323  0.23927178  0.92846049    -0.94200
O294        O  0.39741007  0.98974946  0.93270613    -0.42000
O295        O  0.40986546  0.11576448  0.93033108    -0.78600
O296        O  0.41172236  0.06058278  0.87955414    -0.97300
O297        O  0.40599769  0.11500431  0.81651782    -0.90600
O298        O  0.40524137  0.17594480  0.87053052    -0.93400
C299        C  0.28323013  0.02357253  0.94344657     1.00300
C300        C  0.27758589  0.19063027  0.93138252     1.13300
C301        C  0.27276653  0.03853810  0.80553954     1.04000
O302        O  0.37431310  0.98678718  0.83563320    -0.95600
O303        O  0.42995945  0.03813190  0.80207364    -0.91300
O304        O  0.47855396  0.07244865  0.83020469    -0.84500
C305        C  0.46526614  0.04571384  0.80731763     1.10700
O306        O  0.31053310  0.20638626  0.78916629    -0.97600
Zr307      Zr  0.36507462  0.16956885  0.81420395     1.88900
O308        O  0.47065403  0.16555786  0.82212390    -0.74200
O309        O  0.36963515  0.04955695  0.75438906    -0.53500
O310        O  0.35205823  0.15439589  0.74631680    -0.98100
O311        O  0.37263512  0.24004884  0.82145946    -0.55400
O312        O  0.42365911  0.18093336  0.77852570    -0.74700
C313        C  0.45858304  0.18089993  0.78997440     0.97600
O314        O  0.50948928  0.09923558  0.89438658    -0.63500
O315        O  0.34262569  0.17390621  0.99373192    -0.58300
O316        O  0.47156571  0.16445784  0.92596801    -0.95000
O317        O  0.42393432  0.17940627  0.96781436    -0.93500
O318        O  0.35950037  0.06854358  0.00485445    -0.93800
O319        O  0.42664474  0.04068794  0.98118415    -0.92600
C320        C  0.45907893  0.17981645  0.95802192     1.16500
H321        H  0.31656475  0.11108010  0.95951771     0.32400
H322        H  0.42926303  0.03890074  0.87969748     0.43300
H323        H  0.41983381  0.20000916  0.87042535     0.36800
H324        H  0.31063187  0.10935346  0.79833816     0.33300
H325        H  0.38733663  0.97637499  0.95613311     0.25100
H326        H  0.36306133  0.02174213  0.75052583     0.31000
H327        H  0.36949922  0.13258957  0.74049155     0.36900
H328        H  0.34432223  0.04558219  0.01333994     0.31400
H329        H  0.35814045  0.15513166  0.00911197     0.30200
H330        H  0.38977224  0.24523767  0.95595086     0.31900
H331        H  0.40048917  0.24516095  0.82018247     0.30900
H332        H  0.44990145  0.04912841  0.96715241     0.34900
H333        H  0.52671858  0.12183929  0.89001178     0.27600
H334        H  0.20974864  0.10620051  0.87047328     0.31900
H335        H  0.32034286  0.22154680  0.76669512     0.34700
H336        H  0.35077163  0.19990448  0.00313452     0.27300
H337        H  0.50748703  0.09679163  0.92299840     0.40200
H338        H  0.34832281  0.97831627  0.84329630     0.30200
H339        H  0.38272109  0.97816871  0.91094805     0.37900
H340        H  0.36579533  0.24529399  0.84877246     0.29700
H341        H  0.34692992  0.06392949  0.74471211     0.29800
H342        H  0.22616857  0.12998642  0.83502045     0.30000
C343        C  0.50107730  0.23770491  0.04170750     0.79200
N344        N  0.52574088  0.26049313  0.02088478    -0.79100
C345        C  0.53078696  0.25477791  0.98219243     0.81700
N346        N  0.51125442  0.22612226  0.96385026    -0.79000
C347        C  0.48553810  0.20368840  0.98284669     0.81800
N348        N  0.47989497  0.20987598  0.02203398    -0.80700
C349        C  0.50872738  0.23511561  0.71042214     0.79200
N350        N  0.53277926  0.25687366  0.73283977    -0.79100
C351        C  0.53494251  0.25110997  0.77186150     0.81700
N352        N  0.51207642  0.22448905  0.78888029    -0.79000
C353        C  0.48642817  0.20391192  0.76773198     0.81800
N354        N  0.48441298  0.20916489  0.72821606    -0.80700
C355        C  0.54652745  0.00268863  0.75368166     0.79200
N356        N  0.52864636  0.97155556  0.73680044    -0.79100
C357        C  0.49137496  0.96442351  0.74390490     0.81700
N358        N  0.47246005  0.98857254  0.76779120    -0.79000
C359        C  0.48971078  0.01974088  0.78471071     0.81800
N360        N  0.52697642  0.02712378  0.77738804    -0.80700
C361        C  0.94323677  0.99966147  0.23630504     0.79200
N362        N  0.96781213  0.97762424  0.25826758    -0.79100
C363        C  0.00631803  0.98169780  0.25451232     0.81700
N364        N  0.02022676  0.00951976  0.23048694    -0.79000
C365        C  0.99653137  0.03278116  0.20926511     0.81800
N366        N  0.95791678  0.02746883  0.21161925    -0.80700
C367        C  0.24905379  0.27000914  0.99825502     0.79200
N368        N  0.26293847  0.25176068  0.96612057    -0.79100
C369        C  0.25748476  0.21250597  0.96114304     0.81700
N370        N  0.23902545  0.19150893  0.98848525    -0.79000
C371        C  0.22572591  0.20886216  0.02050821     0.81800
N372        N  0.23043497  0.24792028  0.02522803    -0.80700
C373        C  0.23874847  0.93894435  0.99574358     0.79200
N374        N  0.26243496  0.95999817  0.97184770    -0.79100
C375        C  0.25712813  0.99908967  0.96627207     0.81700
N376        N  0.22980350  0.01747630  0.98613988    -0.79000
C377        C  0.20693317  0.99796859  0.01093084     0.81800
N378        N  0.21086486  0.95842164  0.01560514    -0.80700
C379        C  0.28515937  0.99492190  0.23099415     0.79200
N380        N  0.26294161  0.97221659  0.25496179    -0.79100
C381        C  0.22479263  0.96693689  0.24813256     0.81700
N382        N  0.20819269  0.98652448  0.21875346    -0.79000
C383        C  0.22794872  0.01166317  0.19601887     0.81800
N384        N  0.26685344  0.01565437  0.20160749    -0.80700
C385        C  0.97604059  0.23025579  0.93561445     0.79200
N386        N  0.94772837  0.25219031  0.95144827    -0.79100
C387        C  0.94019196  0.24963336  0.99013092     0.81700
N388        N  0.96131047  0.22514775  0.01311110    -0.79000
C389        C  0.99025135  0.20375700  0.99857751     0.81800
N390        N  0.99782252  0.20671993  0.95955885    -0.80700
C391        C  0.99433191  0.25409140  0.27979172     0.79200
N392        N  0.97259172  0.28005256  0.25883683    -0.79100
C393        C  0.97040678  0.27698385  0.21952189     0.81700
N394        N  0.98918393  0.24786813  0.20171433    -0.79000
C395        C  0.01099011  0.22232022  0.22163919     0.81800
N396        N  0.01417058  0.22563671  0.26097146    -0.80700
Zr397      Zr  0.03091372  0.13167792  0.11737705     2.17500
O398        O  0.96194413  0.13272664  0.10651194    -0.52300
O399        O  0.01737336  0.18052816  0.16773542    -0.75500
O400        O  0.99911715  0.08019301  0.15639152    -0.82300
O401        O  0.05273792  0.18551956  0.01741563    -0.84100
O402        O  0.04799836  0.07486687  0.19780813    -0.79700
O403        O  0.00497524  0.16871339  0.05890931    -0.91300
O404        O  0.06790413  0.18868408  0.20889370    -0.77300
O405        O  0.07484022  0.12147209  0.17050800    -0.86800
O406        O  0.07748757  0.18251403  0.11577063    -0.86500
O407        O  0.05899315  0.06715940  0.10854928    -0.73200
O408        O  0.06363467  0.12270055  0.05736965    -0.85300
Zr409      Zr  0.18241457  0.10211028  0.09842829     2.26400
Zr410      Zr  0.10418945  0.05927786  0.16126199     2.06300
Zr411      Zr  0.10985794  0.17408411  0.05565654     2.10000
Zr412      Zr  0.12129168  0.17168987  0.16865787     1.78800
O413        O  0.13045836  0.18057450  0.98845178    -0.94200
O414        O  0.14195353  0.15501488  0.23458024    -0.42000
O415        O  0.15372941  0.16472320  0.10854560    -0.78600
O416        O  0.15155387  0.10985998  0.16023029    -0.97300
O417        O  0.13633693  0.05078376  0.10145528    -0.90600
O418        O  0.13905309  0.11173521  0.04521061    -0.93400
C419        C  0.03316840  0.19444746  0.19879451     1.00300
C420        C  0.01735414  0.18395614  0.02644654     1.13300
C421        C  0.01462170  0.06458577  0.18667705     1.04000
O422        O  0.11090445  0.03261652  0.22685165    -0.95600
O423        O  0.16736247  0.03382821  0.17785181    -0.91300
O424        O  0.21722824  0.06024649  0.14495967    -0.84500
C425        C  0.20340132  0.03691534  0.17074611     1.10700
O426        O  0.03463955  0.04720751  0.01171424    -0.97600
Zr427      Zr  0.09297667  0.06018922  0.04880483     1.88900
O428        O  0.19835523  0.05001594  0.05340255    -0.74200
O429        O  0.08017665  0.99326604  0.15102629    -0.53500
O430        O  0.06981250  0.99384827  0.06010425    -0.98100
O431        O  0.09923815  0.07179190  0.97904440    -0.55400
O432        O  0.14558602  0.01753436  0.03179850    -0.74700
C433        C  0.18184029  0.02226222  0.03455115     0.97600
O434        O  0.24926142  0.11659876  0.11350685    -0.63500
O435        O  0.09713032  0.24410170  0.05829118    -0.58300
O436        O  0.20962054  0.14979640  0.05263210    -0.95000
O437        O  0.17235960  0.20265838  0.05953140    -0.93500
O438        O  0.11741744  0.24241383  0.16117159    -0.93800
O439        O  0.18068120  0.20449944  0.18682247    -0.92600
C440        C  0.20199205  0.18605195  0.04662925     1.16500
H441        H  0.06550486  0.20779159  0.11715306     0.32400
H442        H  0.16980720  0.10678655  0.18123220     0.43300
H443        H  0.15253586  0.11139747  0.02085422     0.36800
H444        H  0.03964035  0.04697802  0.10954461     0.33300
H445        H  0.13025976  0.17490631  0.25137861     0.25100
H446        H  0.10078233  0.98018337  0.13661228     0.31000
H447        H  0.07991205  0.97837825  0.03833981     0.36900
H448        H  0.11900066  0.25265729  0.18795973     0.31400
H449        H  0.10500628  0.25451229  0.03264949     0.30200
H450        H  0.12791296  0.20871277  0.98221048     0.31900
H451        H  0.12636316  0.06659408  0.97305209     0.30900
H452        H  0.19962898  0.19520186  0.16785063     0.34900
H453        H  0.26348761  0.11040384  0.08960123     0.27600
H454        H  0.95069648  0.13601400  0.13257551     0.31900
H455        H  0.04060053  0.02482861  0.99481956     0.34700
H456        H  0.06896061  0.24684515  0.05829311     0.27300
H457        H  0.25085673  0.14536378  0.11576609     0.40200
H458        H  0.11620771  0.05557865  0.24335668     0.30200
H459        H  0.12802638  0.13055065  0.24084132     0.37900
H460        H  0.09640026  0.10037429  0.97563069     0.29700
H461        H  0.08076041  0.98074978  0.17707304     0.29800
H462        H  0.95496897  0.10581791  0.09880040     0.30000
Zr463      Zr  0.30268015  0.87912261  0.63004112     2.17500
O464        O  0.24146172  0.84999011  0.64791798    -0.52300
O465        O  0.27765712  0.92727819  0.58380861    -0.75500
O466        O  0.26813286  0.92210128  0.67560466    -0.82300
O467        O  0.32203970  0.79495003  0.56180939    -0.84100
O468        O  0.31548357  0.94955795  0.71186581    -0.79700
O469        O  0.27480943  0.83581705  0.58140890    -0.91300
O470        O  0.32694524  0.96474693  0.56183093    -0.77300
O471        O  0.34356772  0.93424490  0.63682195    -0.86800
O472        O  0.34643856  0.87844215  0.57710045    -0.86500
O473        O  0.33463585  0.86907193  0.69164809    -0.73200
O474        O  0.33836830  0.81893591  0.63518370    -0.85300
Zr475      Zr  0.45690919  0.86406829  0.65132494     2.26400
Zr476      Zr  0.37718220  0.92347964  0.69628165     2.06300
Zr477      Zr  0.38321918  0.81992535  0.58290805     2.10000
Zr478      Zr  0.38673853  0.93362996  0.58404111     1.78800
O479        O  0.39093395  0.74936990  0.58116971    -0.94200
O480        O  0.39631585  0.00283606  0.59691664    -0.42000
O481        O  0.42433105  0.87505997  0.59010022    -0.78600
O482        O  0.42190454  0.92481687  0.64397846    -0.97300
O483        O  0.41237232  0.86443567  0.70318462    -0.90600
O484        O  0.41541951  0.80913447  0.64367841    -0.93400
C485        C  0.29113687  0.95595239  0.56373552     1.00300
C486        C  0.28732694  0.80667504  0.56205871     1.13300
C487        C  0.28018708  0.94511124  0.70266932     1.04000
O488        O  0.39136348  0.99269557  0.68869771    -0.95600
O489        O  0.43435748  0.93157043  0.73371995    -0.91300
O490        O  0.48300815  0.91628866  0.69369486    -0.84500
C491        C  0.46894431  0.93482518  0.72273298     1.10700
O492        O  0.31131008  0.77623788  0.71100830    -0.97600
Zr493      Zr  0.37104979  0.81000765  0.69624064     1.88900
O494        O  0.47673405  0.81620197  0.70192304    -0.74200
O495        O  0.36737259  0.92638657  0.76620708    -0.53500
O496        O  0.35659201  0.81912988  0.76474233    -0.98100
O497        O  0.37811205  0.73989799  0.68679538    -0.55400
O498        O  0.42612937  0.79200493  0.73567994    -0.74700
C499        C  0.46202877  0.79537774  0.72963475     0.97600
O500        O  0.52383530  0.87878901  0.63778915    -0.63500
O501        O  0.38171365  0.82577180  0.51220790    -0.58300
O502        O  0.49067389  0.82762304  0.59903375    -0.95000
O503        O  0.44565880  0.80780391  0.55527186    -0.93500
O504        O  0.38758238  0.92193647  0.51430493    -0.93800
O505        O  0.44283805  0.96007375  0.55142214    -0.92600
C506        C  0.48054403  0.81120399  0.56664375     1.16500
H507        H  0.33291128  0.87954392  0.55251974     0.32400
H508        H  0.43894492  0.94694862  0.64651178     0.43300
H509        H  0.42991074  0.78522420  0.64328999     0.36800
H510        H  0.31629450  0.86946665  0.71247905     0.33300
H511        H  0.39611724  0.01562283  0.57098997     0.25100
H512        H  0.35830373  0.95318204  0.77103426     0.31000
H513        H  0.36034738  0.79316907  0.77706273     0.36900
H514        H  0.37510755  0.94509202  0.50244979     0.31400
H515        H  0.38387548  0.79862626  0.50290021     0.30200
H516        H  0.38431660  0.74213721  0.55412551     0.31900
H517        H  0.40598877  0.73499670  0.68700110     0.30900
H518        H  0.46479394  0.94950322  0.56645895     0.34900
H519        H  0.52470795  0.90712592  0.63183891     0.27600
H520        H  0.22200714  0.86945440  0.63992109     0.31900
H521        H  0.31801257  0.75597452  0.73057778     0.34700
H522        H  0.35529739  0.83348268  0.50514697     0.27300
H523        H  0.53752139  0.87581307  0.66295822     0.40200
H524        H  0.36697926  0.00432374  0.67960279     0.30200
H525        H  0.37209894  0.01129855  0.60880036     0.37900
H526        H  0.37000170  0.73552144  0.65953778     0.29700
H527        H  0.34496107  0.90939689  0.77135068     0.29800
H528        H  0.24116017  0.85000718  0.67669161     0.30000
Zr529      Zr  0.12278177  0.87847137  0.44740951     2.17500
O530        O  0.09776496  0.90254289  0.50849761    -0.52300
O531        O  0.16975747  0.83381909  0.47427066    -0.75500
O532        O  0.07987334  0.82699047  0.47574967    -0.82300
O533        O  0.18738602  0.96841493  0.43362262    -0.84100
O534        O  0.04553293  0.80342337  0.42460481    -0.79700
O535        O  0.16781340  0.92485660  0.47980896    -0.91300
O536        O  0.19154412  0.79690128  0.42455992    -0.77300
O537        O  0.11755154  0.82528025  0.40340637    -0.86800
O538        O  0.17719426  0.88114829  0.40587847    -0.86500
O539        O  0.06401930  0.88787617  0.41109469    -0.73200
O540        O  0.11898185  0.93951761  0.41234405    -0.85300
Zr541      Zr  0.11056727  0.89615978  0.28902906     2.26400
Zr542      Zr  0.06097274  0.83563377  0.36552067     2.06300
Zr543      Zr  0.17282690  0.94117249  0.37036045     2.10000
Zr544      Zr  0.17195711  0.82705560  0.36331302     1.78800
O545        O  0.16801567  0.01129861  0.35886538    -0.94200
O546        O  0.15541632  0.75834068  0.35585307    -0.42000
O547        O  0.16838721  0.88695670  0.32701170    -0.78600
O548        O  0.11546325  0.83492122  0.32403505    -0.97300
O549        O  0.05620194  0.89503383  0.33018570    -0.90600
O550        O  0.11570046  0.95050129  0.33236083    -0.93400
C551        C  0.18970782  0.80590903  0.46059697     1.00300
C552        C  0.18614410  0.95600662  0.46883538     1.13300
C553        C  0.05462363  0.80366618  0.46053808     1.04000
O554        O  0.04607124  0.76629578  0.36192554    -0.95600
O555        O  0.04031875  0.81143862  0.30349761    -0.91300
O556        O  0.07109072  0.84420382  0.25536696    -0.84500
C557        C  0.04769860  0.81725658  0.26756326     1.10700
O558        O  0.04333402  0.98433508  0.43167644    -0.97600
Zr559      Zr  0.06169555  0.94771412  0.37446817     1.88900
O560        O  0.06285618  0.94432022  0.26578714    -0.74200
O561        O  0.99370474  0.85319134  0.36954071    -0.53500
O562        O  0.99444499  0.93978629  0.39073190    -0.98100
O563        O  0.06981090  0.01811068  0.36565549    -0.55400
O564        O  0.02481592  0.96045629  0.31635456    -0.74700
C565        C  0.03287864  0.96035167  0.28024536     0.97600
O566        O  0.12831673  0.88724499  0.22128718    -0.63500
O567        O  0.24194051  0.94615056  0.37979268    -0.58300
O568        O  0.16706427  0.93255767  0.26353484    -0.95000
O569        O  0.20922208  0.94846336  0.31178525    -0.93500
O570        O  0.24136637  0.83344392  0.36461745    -0.93800
O571        O  0.20463470  0.80013072  0.30747339    -0.92600
C572        C  0.19924979  0.94700319  0.27604747     1.16500
H573        H  0.20083135  0.88020597  0.42063021     0.32400
H574        H  0.11444034  0.81308493  0.30651932     0.43300
H575        H  0.11685647  0.97451951  0.31753657     0.36800
H576        H  0.04251326  0.88647018  0.42848719     0.33300
H577        H  0.17979215  0.74426187  0.36002074     0.25100
H578        H  0.98335609  0.84938732  0.34295536     0.31000
H579        H  0.98213676  0.96430777  0.38183260     0.36900
H580        H  0.25074063  0.80772482  0.37389323     0.31400
H581        H  0.24696191  0.97412554  0.38493153     0.30200
H582        H  0.19246671  0.01872023  0.34646848     0.31900
H583        H  0.04366530  0.02881678  0.36773146     0.30900
H584        H  0.18702934  0.80494607  0.28526619     0.34900
H585        H  0.13483994  0.85925858  0.21902924     0.27600
H586        H  0.10589910  0.88303409  0.52827575     0.31900
H587        H  0.06721602  0.98720988  0.44708277     0.34700
H588        H  0.24754227  0.93272797  0.40478894     0.27300
H589        H  0.10438227  0.89049344  0.20601747     0.40200
H590        H  0.06940163  0.75424622  0.35134942     0.30200
H591        H  0.14008730  0.75174913  0.37908057     0.37900
H592        H  0.07625310  0.02216050  0.33796682     0.29700
H593        H  0.98188919  0.83201969  0.38517538     0.29800
H594        H  0.06969351  0.89919216  0.50632910     0.30000
C595        C  0.01227688  0.74324462  0.54085156     0.79200
N596        N  0.98693601  0.72077355  0.52009240    -0.79100
C597        C  0.98503590  0.72449804  0.48088508     0.81700
N598        N  0.00789664  0.75122907  0.46325823    -0.79000
C599        C  0.03279009  0.77415268  0.48322566     0.81800
N600        N  0.03537533  0.76972145  0.52226729    -0.80700
C601        C  0.24151315  0.03867681  0.51204936     0.79200
N602        N  0.21367501  0.01813839  0.49275781    -0.79100
C603        C  0.21003810  0.97854456  0.49697470     0.81700
N604        N  0.23475131  0.95928813  0.52095217    -0.79000
C605        C  0.26330331  0.97877638  0.53990617     0.81800
N606        N  0.26688601  0.01832011  0.53493527    -0.80700
C607        C  0.24461796  0.72584951  0.50697845     0.79200
N608        N  0.21906965  0.74500823  0.48377975    -0.79100
C609        C  0.21403814  0.78413582  0.48782944     0.81700
N610        N  0.23467039  0.80399636  0.51491368    -0.79000
C611        C  0.26087695  0.78503414  0.53725103     0.81800
N612        N  0.26605263  0.74620447  0.53281924    -0.80700
C613        C  0.00710131  0.76329370  0.18067982     0.79200
N614        N  0.98848058  0.73328982  0.19925337    -0.79100
C615        C  0.98947797  0.73072924  0.23852589     0.81700
N616        N  0.00898049  0.75854829  0.25867153    -0.79000
C617        C  0.02778333  0.78864825  0.24121590     0.81800
N618        N  0.02690815  0.79100544  0.20164207    -0.80700
C619        C  0.19322427  0.99262646  0.74511992     0.79200
N620        N  0.21523276  0.96900102  0.72239688    -0.79100
C621        C  0.25383157  0.96875479  0.72656078     0.81700
N622        N  0.26996355  0.99137277  0.75414550    -0.79000
C623        C  0.24949135  0.01474306  0.77757419     0.81800
N624        N  0.21062639  0.01579186  0.77284768    -0.80700
C625        C  0.73626000  0.18752316  0.98529547     0.79200
N626        N  0.71183743  0.20819663  0.96169654    -0.79100
C627        C  0.71399471  0.24769357  0.96058601     0.81700
N628        N  0.74092596  0.26607056  0.98189986    -0.79000
C629        C  0.76500470  0.24670113  0.00547897     0.81800
N630        N  0.76249733  0.20700548  0.00799907    -0.80700
C631        C  0.50697126  0.73545212  0.80989249     0.79200
N632        N  0.53398113  0.71692999  0.78900048    -0.79100
C633        C  0.53933885  0.72611288  0.75137442     0.81700
N634        N  0.51653523  0.75278864  0.73371780    -0.79000
C635        C  0.48816991  0.77041178  0.75300438     0.81800
N636        N  0.48317296  0.76186628  0.79164541    -0.80700
C637        C  0.52544348  0.77003746  0.47761188     0.79200
N638        N  0.55628065  0.75149464  0.49315699    -0.79100
C639        C  0.56518137  0.75493077  0.53121608     0.81700
N640        N  0.54192374  0.77630210  0.55474862    -0.79000
C641        C  0.50976086  0.79373938  0.54021024     0.81800
N642        N  0.50183626  0.79051737  0.50133158    -0.80700
C643        C  0.77043243  0.78136787  0.48551398     0.79200
N644        N  0.75511972  0.76424286  0.51739996    -0.79100
C645        C  0.76150785  0.72614258  0.52523258     0.81700
N646        N  0.78391703  0.70501205  0.50161529    -0.79000
C647        C  0.80003730  0.72236337  0.47027484     0.81800
N648        N  0.79236719  0.76012138  0.46155844    -0.80700
C649        C  0.46582839  0.52429667  0.75887116     0.79200
N650        N  0.48697863  0.55152207  0.73910361    -0.79100
C651        C  0.52542123  0.55456229  0.74558947     0.81700
N652        N  0.54265565  0.52980162  0.77082756    -0.79000
C653        C  0.52269688  0.50145177  0.78917845     0.81800
N654        N  0.48418168  0.49854823  0.78317114    -0.80700
C655        C  0.79206441  0.51055871  0.75934213     0.79200
N656        N  0.77238073  0.48196183  0.77915961    -0.79100
C657        C  0.73377281  0.48585702  0.78452997     0.81700
N658        N  0.71559079  0.51784746  0.77092673    -0.79000
C659        C  0.73421121  0.54544819  0.75072360     0.81800
N660        N  0.77218767  0.54133226  0.74406887    -0.80700
C661        C  0.75870014  0.48252930  0.49533199     0.79200
N662        N  0.78546673  0.50135090  0.47353541    -0.79100
C663        C  0.78919834  0.54094410  0.47400984     0.81700
N664        N  0.76388546  0.56260405  0.49411993    -0.79000
C665        C  0.73578393  0.54471391  0.51475449     0.81800
N666        N  0.73423237  0.50474093  0.51646881    -0.80700
C667        C  0.73735323  0.50055533  0.24408801     0.79200
N668        N  0.75911753  0.53169157  0.25593615    -0.79100
C669        C  0.79768217  0.53306667  0.24860841     0.81700
N670        N  0.81451409  0.50251706  0.23094762    -0.79000
C671        C  0.79352019  0.47112935  0.21983258     0.81800
N672        N  0.75499871  0.47067194  0.22564364    -0.80700
Zr673      Zr  0.11292117  0.30671590  0.60772025     2.17500
O674        O  0.13118658  0.23991416  0.62376001    -0.52300
O675        O  0.06373951  0.28765759  0.56038488    -0.75500
O676        O  0.06688619  0.27863461  0.65555040    -0.82300
O677        O  0.19228176  0.32740602  0.53671561    -0.84100
O678        O  0.05320656  0.32303415  0.70227276    -0.79700
O679        O  0.15945292  0.27609779  0.56224626    -0.91300
O680        O  0.04211132  0.34122730  0.52735500    -0.77300
O681        O  0.06177788  0.35212602  0.61311830    -0.86800
O682        O  0.11780686  0.35299234  0.55583381    -0.86500
O683        O  0.12225771  0.33775925  0.66970198    -0.73200
O684        O  0.17373695  0.33891707  0.61733714    -0.85300
Zr685      Zr  0.13402172  0.46349172  0.63365529     2.26400
Zr686      Zr  0.07112494  0.38382199  0.67415030     2.06300
Zr687      Zr  0.17605041  0.38668547  0.56669650     2.10000
Zr688      Zr  0.06710653  0.39785783  0.56085316     1.78800
O689        O  0.24411292  0.37752439  0.55541631    -0.94200
O690        O  0.99814312  0.39911937  0.57063333    -0.42000
O691        O  0.12580388  0.43329082  0.57045467    -0.78600
O692        O  0.07424415  0.43012257  0.62149721    -0.97300
O693        O  0.13041788  0.41680655  0.68546964    -0.90600
O694        O  0.18516337  0.41786646  0.62783197    -0.93400
C695        C  0.04324044  0.30439633  0.53385141     1.00300
C696        C  0.18470685  0.29110510  0.53904323     1.13300
C697        C  0.05095167  0.28914793  0.68771188     1.04000
O698        O  0.00313099  0.37227728  0.68398673    -0.95600
O699        O  0.03396911  0.44067172  0.68569538    -0.91300
O700        O  0.07701023  0.48881099  0.67178134    -0.84500
C701        C  0.04432547  0.47633557  0.68562206     1.10700
O702        O  0.19977078  0.31000291  0.70986298    -0.97600
Zr703      Zr  0.18173560  0.37140448  0.67844209     1.88900
O704        O  0.18600580  0.48097324  0.68067682    -0.74200
O705        O  0.08482740  0.39614736  0.74253880    -0.53500
O706        O  0.17342273  0.36986617  0.74865658    -0.98100
O707        O  0.24716908  0.35444574  0.66163233    -0.55400
O708        O  0.21899917  0.42725034  0.70114667    -0.74700
C709        C  0.21372374  0.46429830  0.69971721     0.97600
O710        O  0.12991094  0.53446424  0.63052026    -0.63500
O711        O  0.16671814  0.40374240  0.49828541    -0.58300
O712        O  0.16870265  0.49174072  0.57629549    -0.95000
O713        O  0.21160792  0.44476144  0.56396385    -0.93500
O714        O  0.08010497  0.40938231  0.49229125    -0.93800
O715        O  0.03945534  0.45904938  0.53773742    -0.92600
C716        C  0.19791711  0.47833596  0.55781225     1.16500
H717        H  0.11766139  0.34061831  0.53070451     0.32400
H718        H  0.05334206  0.44827363  0.61999594     0.43300
H719        H  0.20983151  0.43049346  0.62944023     0.36800
H720        H  0.12148828  0.31843285  0.69026957     0.33300
H721        H  0.99128750  0.37221624  0.57883794     0.25100
H722        H  0.06109200  0.40769403  0.75274640     0.31000
H723        H  0.17026265  0.39750380  0.75610643     0.36900
H724        H  0.05478666  0.40792897  0.47924086     0.31400
H725        H  0.15935939  0.43160641  0.49802480     0.30200
H726        H  0.24765051  0.38198273  0.52718919     0.31900
H727        H  0.26326604  0.36514149  0.68286847     0.30900
H728        H  0.05462151  0.47958721  0.55096174     0.34900
H729        H  0.10370556  0.54007225  0.62094382     0.27600
H730        H  0.10792994  0.22404450  0.61884429     0.31900
H731        H  0.22313808  0.31587809  0.72523724     0.34700
H732        H  0.19266022  0.40354755  0.48702195     0.27300
H733        H  0.13017254  0.54302964  0.65794055     0.40200
H734        H  0.99254516  0.36801350  0.65757081     0.30200
H735        H  0.99455534  0.41495793  0.59423254     0.37900
H736        H  0.25322900  0.37100109  0.63875469     0.29700
H737        H  0.08611803  0.36996697  0.75490246     0.29800
H738        H  0.13453416  0.23955123  0.65237025     0.30000
Zr739      Zr  0.62751759  0.21044425  0.37665402     2.17500
O740        O  0.65323008  0.27373913  0.35684422    -0.52300
O741        O  0.58565878  0.23747995  0.42673126    -0.75500
O742        O  0.58691144  0.24082356  0.32455884    -0.82300
O743        O  0.70839705  0.19019475  0.44655280    -0.84100
O744        O  0.56371237  0.19402745  0.28376071    -0.79700
O745        O  0.67728518  0.24173097  0.41933195    -0.91300
O746        O  0.56698156  0.18937775  0.46867918    -0.77300
O747        O  0.56999394  0.17219021  0.37595748    -0.86800
O748        O  0.62899034  0.16878127  0.43226046    -0.86500
O749        O  0.62980578  0.17180221  0.31819435    -0.73200
O750        O  0.68328938  0.17004920  0.36863296    -0.85300
Zr751      Zr  0.62464927  0.05137384  0.36789663     2.26400
Zr752      Zr  0.57175217  0.13372986  0.31801811     2.06300
Zr753      Zr  0.68256334  0.12868131  0.42461368     2.10000
Zr754      Zr  0.57191573  0.13080321  0.43217857     1.78800
O755        O  0.75129722  0.12274860  0.41598226    -0.94200
O756        O  0.50473424  0.14929396  0.42753645    -0.42000
O757        O  0.62577788  0.08928531  0.42645818    -0.78600
O758        O  0.57009215  0.09276390  0.37477074    -0.97300
O759        O  0.62514843  0.09129348  0.31083794    -0.90600
O760        O  0.68252666  0.08898777  0.36874893    -0.93400
C761        C  0.57027572  0.22508135  0.45853613     1.00300
C762        C  0.70308717  0.22701318  0.44236055     1.13300
C763        C  0.56878557  0.22949622  0.29349578     1.04000
O764        O  0.50508653  0.15373449  0.31415029    -0.95600
O765        O  0.53153739  0.07736076  0.30626758    -0.91300
O766        O  0.56983226  0.02743735  0.32650693    -0.84500
C767        C  0.53933155  0.04099470  0.30919173     1.10700
O768        O  0.70822058  0.17919773  0.26910442    -0.97600
Zr769      Zr  0.68282940  0.12870029  0.31229167     1.88900
O770        O  0.66922545  0.01949857  0.32493812    -0.74200
O771        O  0.57723267  0.11648176  0.24979704    -0.53500
O772        O  0.66747713  0.11855837  0.24380831    -0.98100
O773        O  0.75192759  0.13553516  0.31922650    -0.55400
O774        O  0.71044844  0.06515997  0.30087060    -0.74700
C775        C  0.69938452  0.02985834  0.30641760     0.97600
O776        O  0.59984036  0.98933055  0.39230045    -0.63500
O777        O  0.68674406  0.12655156  0.49532390    -0.58300
O778        O  0.66550652  0.01730458  0.41642779    -0.95000
O779        O  0.69682651  0.06553119  0.44906747    -0.93500
O780        O  0.58504757  0.10941282  0.49863038    -0.93800
O781        O  0.52891915  0.07877457  0.45327689    -0.92600
C782        C  0.68938355  0.02971487  0.44246390     1.16500
H783        H  0.63316739  0.18308712  0.45595119     0.32400
H784        H  0.54687217  0.07751897  0.37614770     0.43300
H785        H  0.70482449  0.07256827  0.37066288     0.36800
H786        H  0.63168293  0.18876027  0.29573590     0.33300
H787        H  0.49741649  0.15586122  0.45442442     0.25100
H788        H  0.55121165  0.12020707  0.23890503     0.31000
H789        H  0.66418883  0.08998359  0.24107915     0.36900
H790        H  0.60359965  0.12876111  0.50887024     0.31400
H791        H  0.71448107  0.12842818  0.50096904     0.30200
H792        H  0.76023363  0.14930383  0.40884672     0.31900
H793        H  0.75954946  0.11490179  0.33803432     0.30900
H794        H  0.54383645  0.05452207  0.45012441     0.34900
H795        H  0.57195937  0.99321406  0.39501066     0.27600
H796        H  0.63274242  0.29266171  0.36247755     0.31900
H797        H  0.72612934  0.16565038  0.25169427     0.34700
H798        H  0.67619314  0.15164373  0.50427707     0.27300
H799        H  0.60242241  0.97097496  0.37041856     0.40200
H800        H  0.49402374  0.14524007  0.33923832     0.30200
H801        H  0.50452393  0.17465099  0.41348978     0.37900
H802        H  0.75578762  0.16027416  0.33341484     0.29700
H803        H  0.59261998  0.13775507  0.23801114     0.29800
H804        H  0.65455410  0.27297098  0.32813170     0.30000
C805        C  0.52026353  0.26510473  0.54291505     0.79200
N806        N  0.54564753  0.24425447  0.52177387    -0.79100
C807        C  0.55138478  0.25270440  0.48351709     0.81700
N808        N  0.53086408  0.28090775  0.46600170    -0.79000
C809        C  0.50394358  0.30020239  0.48566321     0.81800
N810        N  0.49834770  0.29234371  0.52419641    -0.80700
Zr811      Zr  0.45885140  0.37905715  0.37919121     2.17500
O812        O  0.52335322  0.40003294  0.39714358    -0.52300
O813        O  0.48078708  0.33510988  0.32743209    -0.75500
O814        O  0.48660082  0.33800179  0.43098263    -0.82300
O815        O  0.44818983  0.46114537  0.31199163    -0.84100
O816        O  0.44073522  0.31607037  0.47261512    -0.79700
O817        O  0.49593570  0.42481735  0.33837658    -0.91300
O818        O  0.43184072  0.31703432  0.28742900    -0.77300
O819        O  0.41698872  0.32372572  0.38153943    -0.86800
O820        O  0.41732804  0.38451036  0.32443555    -0.86500
O821        O  0.42303489  0.38513605  0.43861885    -0.73200
O822        O  0.42595011  0.44008521  0.38859950    -0.85300
Zr823      Zr  0.30392263  0.39055357  0.39421458     2.26400
Zr824      Zr  0.38102430  0.32932592  0.44054950     2.06300
Zr825      Zr  0.38394133  0.44308656  0.33428810     2.10000
Zr826      Zr  0.37578979  0.32946652  0.32605010     1.78800
O827        O  0.38385536  0.51317969  0.34517026    -0.94200
O828        O  0.38799171  0.25966510  0.33308922    -0.42000
O829        O  0.34050701  0.38825462  0.33468992    -0.78600
O830        O  0.33948351  0.33136889  0.38464459    -0.97300
O831        O  0.34538930  0.38798870  0.44939578    -0.90600
O832        O  0.34580997  0.44642120  0.39120380    -0.93400
C833        C  0.46739250  0.31916346  0.29615141     1.00300
C834        C  0.48388602  0.45208732  0.31554067     1.13300
C835        C  0.47545610  0.32039298  0.46222798     1.04000
O836        O  0.39428054  0.25982151  0.44610662    -0.95600
O837        O  0.32365648  0.29130607  0.45270343    -0.91300
O838        O  0.27669970  0.33215363  0.43141159    -0.84500
C839        C  0.28831182  0.30001423  0.44850620     1.10700
O840        O  0.44213996  0.46124136  0.48650996    -0.97600
Zr841      Zr  0.38714148  0.44360893  0.44594498     1.88900
O842        O  0.28050694  0.44004815  0.44058136    -0.74200
O843        O  0.36610625  0.33798243  0.50897494    -0.53500
O844        O  0.37938403  0.43244700  0.51549608    -0.98100
O845        O  0.40191783  0.51259646  0.43516421    -0.55400
O846        O  0.32948102  0.47873552  0.46154284    -0.74700
C847        C  0.29393527  0.47000438  0.45898839     0.97600
O848        O  0.23623431  0.37945679  0.38021155    -0.63500
O849        O  0.38184027  0.45295515  0.26397418    -0.58300
O850        O  0.27396210  0.42566243  0.33838246    -0.95000
O851        O  0.32234400  0.46073825  0.31103667    -0.93500
O852        O  0.35309230  0.34495599  0.26060835    -0.93800
O853        O  0.32281275  0.28888137  0.30332491    -0.92600
C854        C  0.28726352  0.45074162  0.31360982     1.16500
H855        H  0.43092738  0.38701697  0.30025268     0.32400
H856        H  0.32286084  0.30888914  0.38312772     0.43300
H857        H  0.33145192  0.47040328  0.38996600     0.36800
H858        H  0.44027764  0.38573025  0.46061609     0.33300
H859        H  0.38892409  0.24975833  0.30616301     0.25100
H860        H  0.36438081  0.31114195  0.51976506     0.31000
H861        H  0.35150582  0.42939282  0.51932125     0.36900
H862        H  0.37619504  0.35332974  0.24629608     0.31400
H863        H  0.40622125  0.44244712  0.25423380     0.30200
H864        H  0.41098860  0.52009613  0.35000413     0.31900
H865        H  0.40027309  0.52483552  0.46104052     0.30900
H866        H  0.29966576  0.30091176  0.31431564     0.34900
H867        H  0.23453663  0.35238161  0.37046299     0.27600
H868        H  0.53942579  0.37634486  0.39626247     0.31900
H869        H  0.43356415  0.48248244  0.50365497     0.34700
H870        H  0.36230843  0.43428527  0.25435214     0.27300
H871        H  0.22352620  0.37868559  0.40581329     0.40200
H872        H  0.38669605  0.24908165  0.42053866     0.30200
H873        H  0.41473089  0.25771014  0.34258925     0.37900
H874        H  0.37947978  0.52305696  0.42084706     0.29700
H875        H  0.38972527  0.34893902  0.52072670     0.29800
H876        H  0.52203065  0.40684500  0.42500307     0.30000
C877        C  0.56920510  0.49536760  0.26103311     0.79200
N878        N  0.54934037  0.47225940  0.28744313    -0.79100
C879        C  0.51020842  0.47524376  0.28973336     0.81700
N880        N  0.49226067  0.50022725  0.26554118    -0.79000
C881        C  0.51058984  0.52259899  0.23927958     0.81800
N882        N  0.54930988  0.52057445  0.23711330    -0.80700
C883        C  0.51177098  0.71885069  0.97525723     0.79200
N884        N  0.52767961  0.75325200  0.98547028    -0.79100
C885        C  0.52946583  0.76369072  0.02294347     0.81700
N886        N  0.51631960  0.73933964  0.05100418    -0.79000
C887        C  0.50158989  0.70407435  0.04165990     0.81800
N888        N  0.49787591  0.69431046  0.00327415    -0.80700
Zr889      Zr  0.46304071  0.62367511  0.15304458     2.17500
O890        O  0.53068461  0.61022135  0.14356994    -0.52300
O891        O  0.47965267  0.67288243  0.20193887    -0.75500
O892        O  0.49082220  0.66519590  0.09959862    -0.82300
O893        O  0.45047964  0.53533089  0.21494068    -0.84100
O894        O  0.44192114  0.69062614  0.06346518    -0.79700
O895        O  0.49787055  0.57518296  0.19312638    -0.91300
O896        O  0.43080425  0.68371243  0.24360579    -0.77300
O897        O  0.41836475  0.67592902  0.15485927    -0.86800
O898        O  0.42013002  0.61198364  0.20581377    -0.86500
O899        O  0.42938224  0.61801127  0.09213499    -0.73200
O900        O  0.43218669  0.56139476  0.14084484    -0.85300
Zr901      Zr  0.30988272  0.60127682  0.12993390     2.26400
Zr902      Zr  0.38501726  0.67105038  0.09431602     2.06300
Zr903      Zr  0.38772831  0.55243103  0.19232740     2.10000
Zr904      Zr  0.37503386  0.66325907  0.20689658     1.78800
O905        O  0.38904977  0.48209107  0.18277988    -0.94200
O906        O  0.37259691  0.73436145  0.20446593    -0.42000
O907        O  0.34217788  0.60385900  0.19236160    -0.78600
O908        O  0.34086634  0.66182783  0.14639134    -0.97300
O909        O  0.35372366  0.61104858  0.07860137    -0.90600
O910        O  0.35413560  0.54823321  0.13246558    -0.93400
C911        C  0.46544451  0.68795212  0.23281638     1.00300
C912        C  0.48555422  0.54606710  0.21345711     1.13300
C913        C  0.47718427  0.68507790  0.07032336     1.04000
O914        O  0.39628403  0.74130907  0.09579583    -0.95600
O915        O  0.32686612  0.70426411  0.08369248    -0.91300
O916        O  0.28703430  0.65194055  0.08202256    -0.84500
C917        C  0.29671771  0.68730146  0.07199779     1.10700
O918        O  0.45630726  0.54387120  0.04614657    -0.97600
Zr919      Zr  0.39733627  0.55766188  0.08065183     1.88900
O920        O  0.29106980  0.55166142  0.08175334    -0.74200
O921        O  0.37033969  0.67015063  0.02498898    -0.53500
O922        O  0.38971388  0.57361235  0.01175864    -0.98100
O923        O  0.41532551  0.48932617  0.08775384    -0.55400
O924        O  0.34304739  0.51964795  0.05884111    -0.74700
C925        C  0.30700305  0.52480477  0.06140968     0.97600
O926        O  0.24470823  0.61965899  0.14571547    -0.63500
O927        O  0.38661587  0.54197579  0.26253842    -0.58300
O928        O  0.27596911  0.55838966  0.17621339    -0.95000
O929        O  0.32481293  0.53241036  0.21182274    -0.93500
O930        O  0.36077722  0.63914748  0.27206201    -0.93800
O931        O  0.31732263  0.69194961  0.23340844    -0.92600
C932        C  0.28919504  0.53645176  0.20379536     1.16500
H933        H  0.43374728  0.61000000  0.23030036     0.32400
H934        H  0.32190983  0.68210197  0.14795286     0.43300
H935        H  0.34135737  0.52321197  0.13162480     0.36800
H936        H  0.44633939  0.61952848  0.07026685     0.33300
H937        H  0.39915121  0.74282738  0.19908967     0.25100
H938        H  0.37279731  0.69771605  0.01642989     0.31000
H939        H  0.36198229  0.57803108  0.00778708     0.36900
H940        H  0.38541372  0.63992900  0.28643910     0.31400
H941        H  0.40918819  0.55610270  0.27296027     0.30200
H942        H  0.41531499  0.47655078  0.17396808     0.31900
H943        H  0.41093269  0.47790237  0.06174929     0.30900
H944        H  0.29684646  0.68573727  0.21434971     0.34900
H945        H  0.24593109  0.64820857  0.14988933     0.27600
H946        H  0.54386026  0.63569135  0.14653306     0.31900
H947        H  0.44870724  0.52730134  0.02391719     0.34700
H948        H  0.36455895  0.55723724  0.27171469     0.27300
H949        H  0.22997196  0.61654060  0.12122580     0.40200
H950        H  0.41148835  0.74585873  0.11975554     0.30200
H951        H  0.35830987  0.74058481  0.18023455     0.37900
H952        H  0.39501607  0.47757361  0.10399030     0.29700
H953        H  0.39228959  0.65679579  0.01305944     0.29800
H954        H  0.53309073  0.60376291  0.11570908     0.30000
C955        C  0.24849949  0.55692241  0.50422390     0.79200
N956        N  0.22193499  0.53898061  0.52708215    -0.79100
C957        C  0.21863865  0.49967861  0.52739793     0.81700
N958        N  0.24087607  0.47819796  0.50349531    -0.79000
C959        C  0.26724716  0.49519001  0.48044622     0.81800
N960        N  0.27188435  0.53468948  0.48177760    -0.80700
Zr961      Zr  0.61804511  0.85976449  0.04593831     2.17500
O962        O  0.58711715  0.88381475  0.98669917    -0.52300
O963        O  0.66092202  0.81159935  0.01911631    -0.75500
O964        O  0.66106952  0.90485427  0.01247989    -0.82300
O965        O  0.53107689  0.81952869  0.06108274    -0.84100
O966        O  0.68682619  0.94480368  0.05841848    -0.79700
O967        O  0.57606266  0.81251530  0.01665568    -0.91300
O968        O  0.68237319  0.77071642  0.06692835    -0.77300
O969        O  0.67366819  0.85929930  0.08606418    -0.86800
O970        O  0.61257975  0.80366206  0.08792266    -0.86500
O971        O  0.61455403  0.91995624  0.08073490    -0.73200
O972        O  0.56036412  0.86812574  0.08254431    -0.85300
Zr973      Zr  0.60961617  0.87376999  0.20103765     2.26400
Zr974      Zr  0.67011613  0.91878319  0.12146619     2.06300
Zr975      Zr  0.55672947  0.81312919  0.12535467     2.10000
Zr976      Zr  0.66779655  0.80354384  0.12772714     1.78800
O977        O  0.48844205  0.79858844  0.12129444    -0.94200
O978        O  0.73683064  0.81146328  0.12233396    -0.42000
O979        O  0.61192274  0.81256973  0.16678079    -0.78600
O980        O  0.66673745  0.86283706  0.16383374    -0.97300
O981        O  0.61372285  0.92899598  0.15883565    -0.90600
O982        O  0.55354815  0.87217744  0.16114627    -0.93400
C983        C  0.67896016  0.78111671  0.03114697     1.00300
C984        C  0.54556587  0.80093804  0.03316741     1.13300
C985        C  0.68135884  0.93433064  0.02317214     1.04000
O986        O  0.73896568  0.92454859  0.11284990    -0.95600
O987        O  0.70407979  0.93017949  0.18106093    -0.91300
O988        O  0.66380052  0.91035552  0.22905223    -0.84500
C989        C  0.69470481  0.92681787  0.21669527     1.10700
O990        O  0.53976804  0.96604819  0.06165735    -0.97600
Zr991      Zr  0.55787790  0.92707865  0.11853487     1.88900
O992        O  0.56273364  0.92107235  0.22587990    -0.74200
O993        O  0.66315108  0.98878807  0.13044188    -0.53500
O994        O  0.56925097  0.99644661  0.12921129    -0.98100
O995        O  0.49132801  0.91608269  0.09982120    -0.55400
O996        O  0.52435332  0.94373794  0.17704891    -0.74700
C997        C  0.53386878  0.94082395  0.21292412     0.97600
O998        O  0.62941203  0.86513740  0.26873070    -0.63500
O999        O  0.56333391  0.74234244  0.12192026    -0.58300
O1000       O  0.57559409  0.82010645  0.23341757    -0.95000
O1001       O  0.53272106  0.79884455  0.18832757    -0.93500
O1002       O  0.65629031  0.73426273  0.13953081    -0.93800
O1003       O  0.69901577  0.77700998  0.18568033    -0.92600
C1004       C  0.54704108  0.79901460  0.22254517     1.16500
H1005       H  0.61056981  0.77952226  0.07375688     0.32400
H1006       H  0.68876042  0.86087771  0.18080843     0.43300
H1007       H  0.53030561  0.87203844  0.17603937     0.36800
H1008       H  0.61531725  0.94179637  0.06283139     0.33300
H1009       H  0.74656681  0.78459135  0.11918390     0.25100
H1010       H  0.68871824  0.99976189  0.12457176     0.31000
H1011       H  0.54408424  0.00725038  0.13632961     0.36900
H1012       H  0.67816572  0.72082406  0.12752524     0.31400
H1013       H  0.57984759  0.73551135  0.14445110     0.30200
H1014       H  0.48500438  0.77222521  0.13276264     0.31900
H1015       H  0.47707321  0.93778747  0.11165977     0.30900
H1016       H  0.68359102  0.78673095  0.20752909     0.34900
H1017       H  0.60573397  0.86702472  0.28414586     0.27600
H1018       H  0.60584349  0.87962940  0.96575931     0.31900
H1019       H  0.51910949  0.98349894  0.07034799     0.34700
H1020       H  0.53802077  0.73151750  0.12894471     0.27300
H1021       H  0.63748504  0.83755454  0.27127876     0.40200
H1022       H  0.74534620  0.90426591  0.09367353     0.30200
H1023       H  0.74081186  0.82400769  0.09663902     0.37900
H1024       H  0.48348055  0.89264639  0.11486035     0.29700
H1025       H  0.64680046  0.99746030  0.10839453     0.29800
H1026       H  0.58606259  0.91250516  0.98979136     0.30000
C1027       C  0.73060960  0.70297067  0.97760513     0.79200
N1028       N  0.70714904  0.72015543  0.00414014    -0.79100
C1029       C  0.69985218  0.75944708  0.00148487     0.81700
N1030       N  0.71545370  0.78102242  0.97245708    -0.79000
C1031       C  0.73908897  0.76454162  0.94682124     0.81800
N1032       N  0.74754897  0.72613252  0.95049720    -0.80700
Zr1033     Zr  0.86028248  0.03306043  0.60966634     2.17500
O1034       O  0.87468161  0.97051981  0.58013456    -0.52300
O1035       O  0.81676094  0.00405718  0.65743134    -0.75500
O1036       O  0.91364450  0.00158405  0.64838677    -0.82300
O1037       O  0.78187413  0.05911955  0.53752625    -0.84100
O1038       O  0.95975893  0.04652972  0.66250381    -0.79700
O1039       O  0.81310277  0.00618198  0.56233910    -0.91300
O1040       O  0.78930491  0.05499491  0.68849105    -0.77300
O1041       O  0.87150079  0.07195243  0.66583364    -0.86800
O1042       O  0.80820793  0.07795813  0.61472498    -0.86500
O1043       O  0.91892871  0.06738653  0.59650274    -0.73200
O1044       O  0.85931369  0.07378821  0.55186106    -0.85300
Zr1045     Zr  0.87824644  0.19227357  0.60165812     2.26400
Zr1046     Zr  0.92889493  0.10755731  0.65230047     2.06300
Zr1047     Zr  0.80840841  0.11957887  0.55895380     2.10000
Zr1048     Zr  0.81935810  0.11608928  0.67053724     1.78800
O1049       O  0.79527179  0.11709603  0.48944334    -0.94200
O1050       O  0.83745682  0.10939420  0.73885349    -0.42000
O1051       O  0.81861234  0.15897429  0.61480050    -0.78600
O1052       O  0.87662178  0.15195586  0.65945157    -0.97300
O1053       O  0.92997851  0.14758887  0.59534630    -0.90600
O1054       O  0.86648304  0.15332601  0.54560668    -0.93400
C1055       C  0.79261045  0.01857233  0.68119818     1.00300
C1056       C  0.78730459  0.02233709  0.54039899     1.13300
C1057       C  0.94681637  0.01176344  0.66272875     1.04000
O1058       O  0.94135882  0.09518782  0.72108324    -0.95600
O1059       O  0.94766462  0.16412559  0.68709835    -0.91300
O1060       O  0.92532502  0.21542440  0.65094598    -0.84500
C1061       C  0.94508787  0.20039406  0.67930059     1.10700
O1062       O  0.94247918  0.05093484  0.50730243    -0.97600
Zr1063     Zr  0.91758420  0.10831618  0.53988501     1.88900
O1064       O  0.92758341  0.21640933  0.55782573    -0.74200
O1065       O  0.99605579  0.11822685  0.63698001    -0.53500
O1066       O  0.98703690  0.10324835  0.54274037    -0.98100
O1067       O  0.89660162  0.10485371  0.47220524    -0.55400
O1068       O  0.94230548  0.16918255  0.51436244    -0.74700
C1069       C  0.94508663  0.20380882  0.52778330     0.97600
O1070       O  0.86101477  0.25685403  0.62465810    -0.63500
O1071       O  0.74064564  0.12706204  0.57317059    -0.58300
O1072       O  0.83158414  0.23092535  0.56106700    -0.95000
O1073       O  0.79134980  0.18455583  0.53731241    -0.93500
O1074       O  0.75094229  0.12837740  0.66668782    -0.93800
O1075       O  0.80148919  0.16932245  0.71303875    -0.92600
C1076       C  0.80236275  0.22021293  0.54019784     1.16500
H1077       H  0.78398889  0.06438305  0.61599222     0.32400
H1078       H  0.87904694  0.16789636  0.68228367     0.43300
H1079       H  0.86427495  0.16930615  0.52245267     0.36800
H1080       H  0.93952400  0.04911021  0.59308149     0.33300
H1081       H  0.84355208  0.08139477  0.74247869     0.25100
H1082       H  0.00966700  0.11512425  0.66217709     0.31000
H1083       H  0.99596436  0.12797392  0.55451184     0.36900
H1084       H  0.74001159  0.11442075  0.68936629     0.31400
H1085       H  0.73363891  0.10421216  0.58945721     0.30200
H1086       H  0.80890744  0.13982512  0.47813210     0.31900
H1087       H  0.91824972  0.11561217  0.45709572     0.30900
H1088       H  0.81345682  0.19283329  0.70130518     0.34900
H1089       H  0.85839071  0.25380968  0.65315671     0.27600
H1090       H  0.87673923  0.95173679  0.60208138     0.31900
H1091       H  0.95883254  0.06102642  0.48607912     0.34700
H1092       H  0.73935403  0.14963467  0.59085652     0.27300
H1093       H  0.88423838  0.27312183  0.62114878     0.40200
H1094       H  0.92296235  0.07446168  0.72860089     0.30200
H1095       H  0.86246258  0.12290734  0.74111768     0.37900
H1096       H  0.87636660  0.12476019  0.46938504     0.29700
H1097       H  0.00360959  0.09509113  0.62187540     0.29800
H1098       H  0.90109149  0.97347749  0.57038265     0.30000
C1099       C  0.70399930  0.98625785  0.72811832     0.79200
N1100       N  0.72919630  0.00674603  0.70634319    -0.79100
C1101       C  0.76499867  0.99302669  0.70090203     0.81700
N1102       N  0.77552873  0.95869377  0.71787071    -0.79000
C1103       C  0.75032700  0.93860236  0.74068876     0.81800
N1104       N  0.71478696  0.95265518  0.74586327    -0.80700
Zr1105     Zr  0.93252316  0.85438450  0.84194787     2.17500
O1106       O  0.99307868  0.88380993  0.86205793    -0.52300
O1107       O  0.95996687  0.80205489  0.80457660    -0.75500
O1108       O  0.96170112  0.81437850  0.89426972    -0.82300
O1109       O  0.91358677  0.91519601  0.75380038    -0.84100
O1110       O  0.91643983  0.79843339  0.93888673    -0.79700
O1111       O  0.96333601  0.89556693  0.79192409    -0.91300
O1112       O  0.91273532  0.76640702  0.77550394    -0.77300
O1113       O  0.89314894  0.79867579  0.85290589    -0.86800
O1114       O  0.89169776  0.84685762  0.78665315    -0.86500
O1115       O  0.89716614  0.86947024  0.89937714    -0.73200
O1116       O  0.89524584  0.91318863  0.83770680    -0.85300
Zr1117     Zr  0.77750825  0.86124439  0.85161803     2.26400
Zr1118     Zr  0.85691398  0.81367284  0.90907265     2.06300
Zr1119     Zr  0.85332655  0.90394241  0.78342304     2.10000
Zr1120     Zr  0.85259448  0.79120713  0.79762021     1.78800
O1121       O  0.84402259  0.97455060  0.78358022    -0.94200
O1122       O  0.85370631  0.72362479  0.82031852    -0.42000
O1123       O  0.81331794  0.84781456  0.79337212    -0.78600
O1124       O  0.81572260  0.80313129  0.85415759    -0.97300
O1125       O  0.81831869  0.87052499  0.90648027    -0.90600
O1126       O  0.81624805  0.91817037  0.83945687    -0.93400
C1127       C  0.94777757  0.77456041  0.78258814     1.00300
C1128       C  0.94917177  0.91324263  0.76187140     1.13300
C1129       C  0.95056183  0.79863143  0.92649072     1.04000
O1130       O  0.86327515  0.74449132  0.92458591    -0.95600
O1131       O  0.79924388  0.78388706  0.92991554    -0.91300
O1132       O  0.74977239  0.81458286  0.89908119    -0.84500
C1133       C  0.76380009  0.78934803  0.92338234     1.10700
O1134       O  0.90915402  0.96163372  0.92615234    -0.97600
Zr1135     Zr  0.85746882  0.92614150  0.89388970     1.88900
O1136       O  0.75153309  0.90846649  0.89675162    -0.74200
O1137       O  0.85029008  0.83367280  0.97640652    -0.53500
O1138       O  0.85341381  0.92225970  0.96454559    -0.98100
O1139       O  0.86552729  0.99361648  0.87223987    -0.55400
O1140       O  0.79638968  0.95558433  0.90712082    -0.74700
C1141       C  0.76283902  0.94112076  0.91099226     0.97600
O1142       O  0.71400485  0.83672651  0.83459558    -0.63500
O1143       O  0.85782602  0.91914598  0.71402963    -0.58300
O1144       O  0.74939652  0.90085290  0.79903144    -0.95000
O1145       O  0.79306508  0.88800635  0.75452374    -0.93500
O1146       O  0.84882299  0.79111629  0.72688121    -0.93800
O1147       O  0.79748871  0.75513842  0.77292794    -0.92600
C1148       C  0.76374939  0.90641496  0.76522423     1.16500
H1149       H  0.90606585  0.84351947  0.76311447     0.32400
H1150       H  0.79987360  0.78024475  0.85750982     0.43300
H1151       H  0.80059153  0.94097189  0.83526114     0.36800
H1152       H  0.91441262  0.87289082  0.92118386     0.33300
H1153       H  0.85424261  0.70785456  0.79635204     0.25100
H1154       H  0.84987309  0.80890727  0.99146759     0.31000
H1155       H  0.83427664  0.94202449  0.97184690     0.36900
H1156       H  0.85349377  0.81857095  0.71894093     0.31400
H1157       H  0.83700083  0.90475077  0.70067977     0.30200
H1158       H  0.81629025  0.97873466  0.77970807     0.31900
H1159       H  0.84158639  0.00008663  0.85808849     0.30900
H1160       H  0.77511214  0.77013421  0.78178004     0.34900
H1161       H  0.69662816  0.85906861  0.83848843     0.27600
H1162       H  0.01202165  0.86247313  0.86085968     0.31900
H1163       H  0.89652446  0.98194269  0.94175532     0.34700
H1164       H  0.85106540  0.94704737  0.71119371     0.27300
H1165       H  0.71435795  0.83284952  0.80612152     0.40200
H1166       H  0.87896641  0.73381867  0.90341641     0.30200
H1167       H  0.87947191  0.72015451  0.83196008     0.37900
H1168       H  0.88527489  0.99262083  0.85184429     0.29700
H1169       H  0.87511067  0.84591192  0.98331910     0.29800
H1170       H  0.99018008  0.88904042  0.89013090     0.30000
Zr1171     Zr  0.05748069  0.62101018  0.86937116     2.17500
O1172       O  0.99357489  0.60182756  0.89002425    -0.52300
O1173       O  0.03938997  0.66840704  0.82062775    -0.75500
O1174       O  0.02995048  0.67407962  0.90780890    -0.82300
O1175       O  0.07307687  0.54236231  0.79789841    -0.84100
O1176       O  0.07301491  0.68908329  0.95528714    -0.79700
O1177       O  0.02518688  0.58040417  0.82052666    -0.91300
O1178       O  0.09121578  0.68941355  0.78654273    -0.77300
O1179       O  0.10208426  0.67347523  0.87265866    -0.86800
O1180       O  0.10253418  0.61348005  0.81846259    -0.86500
O1181       O  0.08676109  0.61345354  0.93227935    -0.73200
O1182       O  0.08644520  0.55816383  0.88077548    -0.85300
Zr1183     Zr  0.20838063  0.59917410  0.89518962     2.26400
Zr1184     Zr  0.13255072  0.66525230  0.93409246     2.06300
Zr1185     Zr  0.13249740  0.55257767  0.83057858     2.10000
Zr1186     Zr  0.14662324  0.66587487  0.82154504     1.78800
O1187       O  0.11846786  0.48284435  0.83060211    -0.94200
O1188       O  0.14916810  0.73619618  0.83169482    -0.42000
O1189       O  0.17785508  0.60490705  0.83242518    -0.78600
O1190       O  0.17837676  0.66099770  0.88278542    -0.97300
O1191       O  0.16372702  0.60491587  0.94677687    -0.90600
O1192       O  0.16376768  0.54599614  0.89175408    -0.93400
C1193       C  0.05534090  0.68798170  0.79332012     1.00300
C1194       C  0.03874017  0.55486001  0.79722544     1.13300
C1195       C  0.04059345  0.69238988  0.93867270     1.04000
O1196       O  0.12653712  0.73552940  0.94211755    -0.95600
O1197       O  0.19023149  0.69751891  0.94815173    -0.91300
O1198       O  0.23432113  0.64980389  0.94029178    -0.84500
C1199       C  0.22309583  0.68306548  0.95362202     1.10700
O1200       O  0.05831243  0.53297316  0.97151618    -0.97600
Zr1201     Zr  0.11874597  0.55249475  0.94221906     1.88900
O1202       O  0.22583929  0.54788045  0.94137494    -0.74200
O1203       O  0.14050316  0.65636835  0.00396246    -0.53500
O1204       O  0.11890334  0.56475782  0.01191313    -0.98100
O1205       O  0.10346319  0.48391242  0.93148861    -0.55400
O1206       O  0.17363521  0.51709769  0.96674056    -0.74700
C1207       C  0.20971504  0.52208880  0.96317866     0.97600
O1208       O  0.27733267  0.60675710  0.88785591    -0.63500
O1209       O  0.14813916  0.55155770  0.76172438    -0.58300
O1210       O  0.23609601  0.56804266  0.83723961    -0.95000
O1211       O  0.19264253  0.52091068  0.82522348    -0.93500
O1212       O  0.15744940  0.65410343  0.75284988    -0.93800
O1213       O  0.20763984  0.69203602  0.79938756    -0.92600
C1214       C  0.22399804  0.53825563  0.81793322     1.16500
H1215       H  0.09039896  0.61374191  0.79315373     0.32400
H1216       H  0.19715870  0.68172469  0.88227389     0.43300
H1217       H  0.17605467  0.52085248  0.89330032     0.36800
H1218       H  0.06790656  0.61610514  0.95240690     0.33300
H1219       H  0.15163636  0.74766217  0.80531098     0.25100
H1220       H  0.14318302  0.68319461  0.01416055     0.31000
H1221       H  0.14578138  0.57125552  0.01856586     0.36900
H1222       H  0.17717804  0.63348741  0.75238829     0.31400
H1223       H  0.13953296  0.52559336  0.75262625     0.30200
H1224       H  0.12347160  0.47441002  0.80367936     0.31900
H1225       H  0.11284100  0.47009048  0.95508549     0.30900
H1226       H  0.22708351  0.67507117  0.81194484     0.34900
H1227       H  0.28148922  0.63491623  0.88252728     0.27600
H1228       H  0.97689882  0.62388040  0.88220665     0.31900
H1229       H  0.06507215  0.51409838  0.99241173     0.34700
H1230       H  0.13018828  0.57014972  0.74918903     0.27300
H1231       H  0.28828319  0.60225741  0.91415048     0.40200
H1232       H  0.13225603  0.74675811  0.91619318     0.30200
H1233       H  0.12303941  0.74332897  0.83978351     0.37900
H1234       H  0.12099334  0.47566851  0.91073330     0.29700
H1235       H  0.11511303  0.64748865  0.01306293     0.29800
H1236       H  0.99456795  0.60277138  0.91877368     0.30000
C1237       C  0.00816641  0.73174192  0.70759223     0.79200
N1238       N  0.97920436  0.75110229  0.72479223    -0.79100
C1239       C  0.97625879  0.75094194  0.76395068     0.81700
N1240       N  0.00151058  0.73073607  0.78594143    -0.79000
C1241       C  0.03007686  0.71093178  0.76893432     0.81800
N1242       N  0.03390853  0.71176248  0.72974223    -0.80700
C1243       C  0.95869054  0.51595013  0.73686373     0.79200
N1244       N  0.97758164  0.53530393  0.76582273    -0.79100
C1245       C  0.01615243  0.53886013  0.76518915     0.81700
N1246       N  0.03608722  0.52299727  0.73588924    -0.79000
C1247       C  0.01890936  0.50259434  0.70757304     0.81800
N1248       N  0.97974337  0.49823741  0.70834103    -0.80700
C1249       C  0.29925528  0.51250392  0.74707391     0.79200
N1250       N  0.28199541  0.52809334  0.77869875    -0.79100
C1251       C  0.24385347  0.52378760  0.78368599     0.81700
N1252       N  0.22271293  0.50432441  0.75682223    -0.79000
C1253       C  0.23875964  0.48871454  0.72507674     0.81800
N1254       N  0.27754001  0.49211975  0.72043589    -0.80700
C1255       C  0.74248360  0.94367363  0.48043354     0.79200
N1256       N  0.71641232  0.96479696  0.45947028    -0.79100
C1257       C  0.71245691  0.00324796  0.46681237     0.81700
N1258       N  0.73497583  0.01993797  0.49427883    -0.79000
C1259       C  0.76143551  0.99962303  0.51482943     0.81800
N1260       N  0.76535409  0.96107052  0.50780941    -0.80700
C1261       C  0.99571396  0.25688253  0.44932901     0.79200
N1262       N  0.01827726  0.28149946  0.47063963    -0.79100
C1263       C  0.01806594  0.27960550  0.51025965     0.81700
N1264       N  0.99396777  0.25459709  0.52854577    -0.79000
C1265       C  0.97091189  0.23067861  0.50768889     0.81800
N1266       N  0.97264030  0.23109727  0.46831391    -0.80700
C1267       C  0.99392300  0.24141163  0.76561395     0.79200
N1268       N  0.96742649  0.22276641  0.74303187    -0.79100
C1269       C  0.96896453  0.22518101  0.70349357     0.81700
N1270       N  0.99789668  0.24455473  0.68628639    -0.79000
C1271       C  0.02481529  0.26269027  0.70788324     0.81800
N1272       N  0.02242461  0.26198179  0.74760752    -0.80700
C1273       C  0.51126708  0.74797538  0.31079312     0.79200
N1274       N  0.49015717  0.71890422  0.29362652    -0.79100
C1275       C  0.48955917  0.71576705  0.25411241     0.81700
N1276       N  0.50908447  0.74173018  0.23249427    -0.79000
C1277       C  0.52918482  0.77103247  0.24888203     0.81800
N1278       N  0.53034517  0.77429863  0.28801868    -0.80700
C1279       C  0.77806994  0.97928335  0.25728822     0.79200
N1280       N  0.75947589  0.00365737  0.28169778    -0.79100
C1281       C  0.72129902  0.99939542  0.28777881     0.81700
N1282       N  0.70165268  0.97084206  0.26962833    -0.79000
C1283       C  0.71920056  0.94733281  0.24426331     0.81800
N1284       N  0.75732869  0.95202198  0.23744516    -0.80700
C1285       C  0.25947918  0.76742338  0.00842034     0.79200
N1286       N  0.27593984  0.74832554  0.03933980    -0.79100
C1287       C  0.27571176  0.70829383  0.04145281     0.81700
N1288       N  0.26153882  0.68735326  0.01154618    -0.79000
C1289       C  0.24656746  0.70565324  0.98016868     0.81800
N1290       N  0.24412554  0.74534292  0.97951598    -0.80700
C1291       C  0.75545460  0.30963029  0.49386053     0.79200
N1292       N  0.77964946  0.28774006  0.51730463    -0.79100
C1293       C  0.77860577  0.24785671  0.51580012     0.81700
N1294       N  0.75348306  0.23082273  0.49097322    -0.79000
C1295       C  0.72938994  0.25113871  0.46745699     0.81800
N1296       N  0.73030692  0.29098071  0.46893679    -0.80700
C1297       C  0.20704784  0.48167200  0.24790798     0.79200
N1298       N  0.22635109  0.50684872  0.22371765    -0.79100
C1299       C  0.26424139  0.51324832  0.22967737     0.81700
N1300       N  0.28176855  0.49510723  0.25974052    -0.79000
C1301       C  0.26343435  0.47015632  0.28380528     0.81800
N1302       N  0.22584691  0.46281657  0.27761057    -0.80700
C1303       C  0.26068991  0.44013814  0.01160011     0.79200
N1304       N  0.28444725  0.46072098  0.03587302    -0.79100
C1305       C  0.28227199  0.50056482  0.03677896     0.81700
N1306       N  0.25780648  0.51932882  0.01278568    -0.79000
C1307       C  0.23480119  0.49941794  0.98836928     0.81800
N1308       N  0.23558826  0.45975589  0.98806689    -0.80700
C1309       C  0.45437484  0.99635584  0.25739914     0.79200
N1310       N  0.47512701  0.01932968  0.28268723    -0.79100
C1311       C  0.51388961  0.01355355  0.28760454     0.81700
N1312       N  0.53139498  0.98576479  0.26665246    -0.79000
C1313       C  0.51181481  0.96421883  0.24042053     0.81800
N1314       N  0.47341485  0.96966284  0.23568254    -0.80700
C1315       C  0.51139706  0.26845261  0.21127962     0.79200
N1316       N  0.48747869  0.29209958  0.23195566    -0.79100
C1317       C  0.49466675  0.29928175  0.27061286     0.81700
N1318       N  0.52491200  0.28240058  0.28842908    -0.79000
C1319       C  0.54764165  0.25765336  0.26937335     0.81800
N1320       N  0.54068464  0.25045411  0.23087623    -0.80700
C1321       C  0.24181813  0.21081239  0.49464190     0.79200
N1322       N  0.21426412  0.22883844  0.51601908    -0.79100
C1323       C  0.20916183  0.26810462  0.51277700     0.81700
N1324       N  0.23174950  0.28918836  0.48822729    -0.79000
C1325       C  0.25996528  0.27283350  0.46763624     0.81800
N1326       N  0.26540107  0.23319123  0.47128172    -0.80700
C1327       C  0.99910413  0.75599153  0.01237837     0.79200
N1328       N  0.01785411  0.72620194  0.99542035    -0.79100
C1329       C  0.01575330  0.72084368  0.95638016     0.81700
N1330       N  0.99580502  0.74613612  0.93379533    -0.79000
C1331       C  0.97731082  0.77631027  0.95023976     0.81800
N1332       N  0.97822040  0.78076650  0.98959504    -0.80700
C1333       C  0.72398350  0.01893862  0.97202706     0.79200
N1334       N  0.74109297  0.00091574  0.94180639    -0.79100
C1335       C  0.73732782  0.96171034  0.93704670     0.81700
N1336       N  0.71642725  0.94044104  0.96264953    -0.79000
C1337       C  0.70002478  0.95798339  0.99333077     0.81800
N1338       N  0.70431934  0.99707375  0.99830469    -0.80700
C1339       C  0.02915071  0.97025442  0.71855956     0.79200
N1340       N  0.00886987  0.99118048  0.69135090    -0.79100
C1341       C  0.97098768  0.98360233  0.68464831     0.81700
N1342       N  0.95358721  0.95609790  0.70640807    -0.79000
C1343       C  0.97275507  0.93593462  0.73461149     0.81800
N1344       N  0.01061992  0.94297545  0.74071982    -0.80700
C1345       C  0.67708452  0.50096114  0.28612272    -0.02800
C1346       C  0.69430931  0.49942756  0.24903463     0.06800
C1347       C  0.67003247  0.49464403  0.21624729    -0.02900
C1348       C  0.62974084  0.49154968  0.22039664    -0.03000
C1349       C  0.61239400  0.49389436  0.25748198     0.07000
C1350       C  0.63667757  0.49848015  0.29029931    -0.03100
Br1351     Br  0.61465098  0.50351983  0.34122770    -0.01700
Br1352     Br  0.70865627  0.50506752  0.33187684    -0.01800
Br1353     Br  0.59859367  0.48249182  0.17465604    -0.01700
Br1354     Br  0.69185547  0.49420677  0.16482465    -0.01700
C1355       C  0.79192534  0.41609492  0.49416150    -0.02800
C1356       C  0.75757295  0.43808685  0.49667384     0.06800
C1357       C  0.72260014  0.41690983  0.49962381    -0.02900
C1358       C  0.72224683  0.37536735  0.50053772    -0.03000
C1359       C  0.75626395  0.35378637  0.49553186     0.07000
C1360       C  0.79100924  0.37473268  0.49191369    -0.03100
Br1361     Br  0.83770397  0.34698423  0.48139246    -0.01700
Br1362     Br  0.84143274  0.44152007  0.49649675    -0.01800
Br1363     Br  0.67497947  0.34796226  0.51100518    -0.01700
Br1364     Br  0.67422643  0.44387648  0.50012543    -0.01700
C1365       C  0.85491888  0.47644454  0.74226443    -0.02800
C1366       C  0.83493323  0.51003452  0.75448317     0.06800
C1367       C  0.85590831  0.54517296  0.75934040    -0.02900
C1368       C  0.89502223  0.54748165  0.74972509    -0.03000
C1369       C  0.91552670  0.51380468  0.73870545     0.07000
C1370       C  0.89490464  0.47823726  0.73469852    -0.03100
Br1371     Br  0.92121693  0.43137178  0.71993811    -0.01700
Br1372     Br  0.82783239  0.42768723  0.73581635    -0.01800
Br1373     Br  0.91969490  0.59823545  0.74970610    -0.01700
Br1374     Br  0.83238443  0.58996362  0.78321166    -0.01700
C1375       C  0.40536855  0.48541447  0.74450749    -0.02800
C1376       C  0.42327762  0.52164827  0.75272708     0.06800
C1377       C  0.40012205  0.55526386  0.75565282    -0.02900
C1378       C  0.36001078  0.55264640  0.75022147    -0.03000
C1379       C  0.34194077  0.51604296  0.74422994     0.07000
C1380       C  0.36505159  0.48251811  0.74106823    -0.03100
Br1381     Br  0.34159679  0.43179046  0.73489297    -0.01700
Br1382     Br  0.43589529  0.43926467  0.73732649    -0.01800
Br1383     Br  0.32985851  0.59980473  0.75005761    -0.01700
Br1384     Br  0.42255906  0.60455454  0.77093869    -0.01700
C1385       C  0.79116830  0.84840221  0.46554681    -0.02800
C1386       C  0.76172217  0.82225462  0.47645643     0.06800
C1387       C  0.72400650  0.83593874  0.48117582    -0.02900
C1388       C  0.71689161  0.87610804  0.48035770    -0.03000
C1389       C  0.74713911  0.90220554  0.47297445     0.07000
C1390       C  0.78332566  0.88834321  0.46259066    -0.03100
Br1391     Br  0.82194331  0.92440541  0.44421795    -0.01700
Br1392     Br  0.84314542  0.83108909  0.45843979    -0.01800
Br1393     Br  0.66646060  0.89522711  0.49217668    -0.01700
Br1394     Br  0.68186439  0.80001430  0.48874681    -0.01700
C1395       C  0.48091741  0.74966177  0.37761974    -0.02800
C1396       C  0.51377026  0.75207563  0.35386489     0.06800
C1397       C  0.54925054  0.76227515  0.37107582    -0.02900
C1398       C  0.55131384  0.77255756  0.41040182    -0.03000
C1399       C  0.51934861  0.76779467  0.43475345     0.07000
C1400       C  0.48387070  0.75678520  0.41804670    -0.03100
Br1401     Br  0.43921025  0.75125720  0.45013763    -0.01700
Br1402     Br  0.43144671  0.73775261  0.35519603    -0.01800
Br1403     Br  0.59751017  0.79692583  0.42976747    -0.01700
Br1404     Br  0.59640869  0.75921235  0.34220231    -0.01700
C1405       C  0.54210736  0.72404152  0.87277090    -0.02800
C1406       C  0.50666264  0.72794001  0.85257932     0.06800
C1407       C  0.47226258  0.72194469  0.87312981    -0.02900
C1408       C  0.47334790  0.71533572  0.91373603    -0.03000
C1409       C  0.50873865  0.71133305  0.93331710     0.07000
C1410       C  0.54284979  0.71331160  0.91216922    -0.03100
Br1411     Br  0.59117866  0.70376678  0.93846207    -0.01700
Br1412     Br  0.59036898  0.73787584  0.84886611    -0.01800
Br1413     Br  0.42659531  0.71515417  0.94297600    -0.01700
Br1414     Br  0.42370888  0.72207731  0.84612330    -0.01700
C1415       C  0.69796748  0.12533032  0.98816745    -0.02800
C1416       C  0.73398690  0.14408040  0.98544498     0.06800
C1417       C  0.76698314  0.12127366  0.97936922    -0.02900
C1418       C  0.76385178  0.08037491  0.97544268    -0.03000
C1419       C  0.72765441  0.06186999  0.97707573     0.07000
C1420       C  0.69475277  0.08463278  0.98340320    -0.03100
Br1421     Br  0.64448749  0.06083153  0.98245376    -0.01700
Br1422     Br  0.65255481  0.15509074  0.99934561    -0.01800
Br1423     Br  0.80962393  0.04986987  0.96835835    -0.01700
Br1424     Br  0.81651235  0.14583951  0.97384569    -0.01700
C1425       C  0.08488737  0.98606052  0.76352759    -0.02800
C1426       C  0.07067290  0.97881091  0.72559482     0.06800
C1427       C  0.09638849  0.97981023  0.69425685    -0.02900
C1428       C  0.13545715  0.98846927  0.70052660    -0.03000
C1429       C  0.15052809  0.99226305  0.73878978     0.07000
C1430       C  0.12455871  0.99193938  0.77025826    -0.03100
Br1431     Br  0.14252195  0.99784974  0.82314281    -0.01700
Br1432     Br  0.04993726  0.98855613  0.80663980    -0.01800
Br1433     Br  0.16736877  0.99773724  0.65568096    -0.01700
Br1434     Br  0.07909592  0.96541577  0.64280390    -0.01700
C1435       C  0.03719178  0.76005212  0.07490187    -0.02800
C1436       C  0.00131705  0.76072578  0.05537510     0.06800
C1437       C  0.96756959  0.76358923  0.07746300    -0.02900
C1438       C  0.96972696  0.76657173  0.11828621    -0.03000
C1439       C  0.00545889  0.76512484  0.13764227     0.07000
C1440       C  0.03911126  0.76145260  0.11584779    -0.03100
Br1441     Br  0.08762459  0.75471770  0.14232284    -0.01700
Br1442     Br  0.08421660  0.75748619  0.04601475    -0.01800
Br1443     Br  0.92341622  0.77234658  0.14787240    -0.01700
Br1444     Br  0.91798165  0.75947948  0.05260310    -0.01700
C1445       C  0.24198268  0.66120723  0.54048793    -0.02800
C1446       C  0.24792832  0.68292084  0.50609561     0.06800
C1447       C  0.25818073  0.66366471  0.47179643    -0.02900
C1448       C  0.25952925  0.62250670  0.47096992    -0.03000
C1449       C  0.25207383  0.60035608  0.50519628     0.07000
C1450       C  0.24532860  0.62035794  0.54043168    -0.03100
Br1451     Br  0.24289159  0.59294958  0.58987840    -0.01700
Br1452     Br  0.22734690  0.68722048  0.58780785    -0.01800
Br1453     Br  0.27010157  0.59765264  0.42205326    -0.01700
Br1454     Br  0.27198497  0.69395011  0.42635813    -0.01700
C1455       C  0.25326063  0.10765218  0.53902477    -0.02800
C1456       C  0.24462504  0.08291650  0.50705123     0.06800
C1457       C  0.23831514  0.10115457  0.47018124    -0.02900
C1458       C  0.23860847  0.14253907  0.46596509    -0.03000
C1459       C  0.24605918  0.16693090  0.49805829     0.07000
C1460       C  0.25425581  0.14899660  0.53437412    -0.03100
Br1461     Br  0.26821619  0.18148795  0.57788169    -0.01700
Br1462     Br  0.26208089  0.08586539  0.59030053    -0.01800
Br1463     Br  0.22709157  0.16610446  0.41608735    -0.01700
Br1464     Br  0.23119478  0.06997788  0.42415094    -0.01700
C1465       C  0.01372654  0.70284235  0.60199619    -0.02800
C1466       C  0.01370649  0.73996852  0.58363309     0.06800
C1467       C  0.01387367  0.77411337  0.60644225    -0.02900
C1468       C  0.01448991  0.77106897  0.64709903    -0.03000
C1469       C  0.01223023  0.73412271  0.66523023     0.07000
C1470       C  0.01171486  0.69999257  0.64271284    -0.03100
Br1471     Br  0.00519513  0.64947227  0.66731625    -0.01700
Br1472     Br  0.01756126  0.65561224  0.57193681    -0.01800
Br1473     Br  0.01907911  0.81783775  0.67798680    -0.01700
Br1474     Br  0.00980087  0.82547116  0.58289106    -0.01700
C1475       C  0.96060600  0.25182437  0.34378600    -0.02800
C1476       C  0.99495718  0.25577174  0.32298432     0.06800
C1477       C  0.02962463  0.26109764  0.34353335    -0.02900
C1478       C  0.03019362  0.26126495  0.38464358    -0.03000
C1479       C  0.99563666  0.25786302  0.40574240     0.07000
C1480       C  0.96070557  0.25390790  0.38471694    -0.03100
Br1481     Br  0.91203070  0.25347500  0.41103541    -0.01700
Br1482     Br  0.91323202  0.24158514  0.31618850    -0.01800
Br1483     Br  0.07900537  0.26384941  0.41126195    -0.01700
Br1484     Br  0.07630089  0.26975994  0.31509145    -0.01700
C1485       C  0.99463953  0.27220337  0.83308282    -0.02800
C1486       C  0.99166831  0.23857704  0.80946209     0.06800
C1487       C  0.98485355  0.20206487  0.82804012    -0.02900
C1488       C  0.97953287  0.19949319  0.86882240    -0.03000
C1489       C  0.98313343  0.23287194  0.89243645     0.07000
C1490       C  0.99089714  0.26925067  0.87412414    -0.03100
Br1491     Br  0.99653396  0.31548621  0.90538175    -0.01700
Br1492     Br  0.00137854  0.32309461  0.80938685    -0.01800
Br1493     Br  0.96363746  0.15053002  0.89182998    -0.01700
Br1494     Br  0.98446848  0.15460101  0.79812813    -0.01700
C1495       C  0.34825973  0.96556337  0.25831152    -0.02800
C1496       C  0.32889476  0.99671191  0.23820769     0.06800
C1497       C  0.35220590  0.02905028  0.22618090    -0.02900
C1498       C  0.39270735  0.02936021  0.23290069    -0.03000
C1499       C  0.41105745  0.99873597  0.25346337     0.07000
C1500       C  0.38815834  0.96746413  0.26676325    -0.03100
Br1501     Br  0.41209982  0.92680074  0.29767302    -0.01700
Br1502     Br  0.32243155  0.91740040  0.27252039    -0.01800
Br1503     Br  0.42390694  0.07135958  0.21274760    -0.01700
Br1504     Br  0.32978543  0.07439679  0.20150297    -0.01700
C1505       C  0.24983669  0.87206210  0.96633589    -0.02800
C1506       C  0.24388828  0.89507330  0.99974096     0.06800
C1507       C  0.24421279  0.87590563  0.03647778    -0.02900
C1508       C  0.25027682  0.83487411  0.03969208    -0.03000
C1509       C  0.25645053  0.81178477  0.00613803     0.07000
C1510       C  0.25712672  0.83142946  0.96948363    -0.03100
Br1511     Br  0.27025986  0.80389845  0.92255623    -0.01700
Br1512     Br  0.24471877  0.89531075  0.91508071    -0.01800
Br1513     Br  0.24870480  0.81101496  0.09079376    -0.01700
Br1514     Br  0.23691383  0.90574391  0.08318746    -0.01700
C1515       C  0.22539818  0.33546372  0.02399362    -0.02800
C1516       C  0.25366293  0.31359606  0.00406347     0.06800
C1517       C  0.28646843  0.33406502  0.99031778    -0.02900
C1518       C  0.28911015  0.37526533  0.99317694    -0.03000
C1519       C  0.26029101  0.39656608  0.01168698     0.07000
C1520       C  0.22927231  0.37633087  0.02820010    -0.03100
Br1521     Br  0.19211708  0.40521653  0.05746667    -0.01700
Br1522     Br  0.17974309  0.31135572  0.04489248    -0.01800
Br1523     Br  0.33190141  0.40302229  0.97087577    -0.01700
Br1524     Br  0.32982088  0.30635716  0.97035609    -0.01700
C1525       C  0.88435745  0.95638234  0.24420218    -0.02800
C1526       C  0.90075855  0.99426701  0.24071643     0.06800
C1527       C  0.87625304  0.02697167  0.24256059    -0.02900
C1528       C  0.83622906  0.02192362  0.24529910    -0.03000
C1529       C  0.82011435  0.98426174  0.25055297     0.07000
C1530       C  0.84467317  0.95157768  0.25060761    -0.03100
Br1531     Br  0.82466435  0.90002014  0.26199458    -0.01700
Br1532     Br  0.91542432  0.91025643  0.23871747    -0.01800
Br1533     Br  0.80368853  0.06711292  0.23942528    -0.01700
Br1534     Br  0.89712569  0.07924044  0.24524551    -0.01700
C1535       C  0.61313441  0.01172556  0.77792339    -0.02800
C1536       C  0.58720408  0.00889751  0.74640675     0.06800
C1537       C  0.60073693  0.00633290  0.70800495    -0.02900
C1538       C  0.63987034  0.00157906  0.70154166    -0.03000
C1539       C  0.66524414  0.00033330  0.73344193     0.07000
C1540       C  0.65231218  0.00752217  0.77127933    -0.03100
Br1541     Br  0.68831187  0.01002321  0.81418450    -0.01700
Br1542     Br  0.59555751  0.01750150  0.83066619    -0.01800
Br1543     Br  0.65799836  0.99271420  0.64949177    -0.01700
Br1544     Br  0.56569816  0.00839348  0.66420403    -0.01700
C1545       C  0.47709839  0.24632626  0.64412485    -0.02800
C1546       C  0.51035790  0.24017401  0.66704888     0.06800
C1547       C  0.54641490  0.24189722  0.64867248    -0.02900
C1548       C  0.54937484  0.25224454  0.60904120    -0.03000
C1549       C  0.51621223  0.25700489  0.58567191     0.07000
C1550       C  0.47992211  0.25321389  0.60348608    -0.03100
Br1551     Br  0.43369940  0.25582661  0.57245688    -0.01700
Br1552     Br  0.42765760  0.24782766  0.66849156    -0.01800
Br1553     Br  0.59952475  0.26315443  0.58806937    -0.01700
Br1554     Br  0.59244413  0.22777174  0.67694715    -0.01700
C1555       C  0.49666228  0.28347181  0.10016530    -0.02800
C1556       C  0.49785134  0.24477833  0.08543313     0.06800
C1557       C  0.50079210  0.21389185  0.11301453    -0.02900
C1558       C  0.50395269  0.22150731  0.15366830    -0.03000
C1559       C  0.50474277  0.26027403  0.16813631     0.07000
C1560       C  0.50102198  0.29110565  0.14065605    -0.03100
Br1561     Br  0.50569195  0.34442902  0.15787719    -0.01700
Br1562     Br  0.48734384  0.32675910  0.06501738    -0.01800
Br1563     Br  0.50701148  0.17803750  0.18957229    -0.01700
Br1564     Br  0.50266903  0.16068049  0.09529610    -0.01700
C1565       C  0.11089691  0.46897753  0.19837851    -0.02800
C1566       C  0.08608343  0.47477513  0.22987333     0.06800
C1567       C  0.10106506  0.47664174  0.26808730    -0.02900
C1568       C  0.14070828  0.47841974  0.27426068    -0.03000
C1569       C  0.16563765  0.47554034  0.24236973     0.07000
C1570       C  0.15061825  0.46830611  0.20487685    -0.03100
Br1571     Br  0.18427113  0.45615385  0.16248499    -0.01700
Br1572     Br  0.09131559  0.46444990  0.14589404    -0.01800
Br1573     Br  0.15988913  0.48780354  0.32632645    -0.01700
Br1574     Br  0.06738922  0.47568616  0.31246008    -0.01700
C1575       C  0.75030574  0.59592281  0.00919856    -0.02800
C1576       C  0.75771786  0.57843004  0.97303628     0.06800
C1577       C  0.75640484  0.60177088  0.93907138    -0.02900
C1578       C  0.74523178  0.64116939  0.94063743    -0.03000
C1579       C  0.73869907  0.65960915  0.97692548     0.07000
C1580       C  0.74199081  0.63646039  0.01133737    -0.03100
Br1581     Br  0.73606907  0.65954619  0.06184169    -0.01700
Br1582     Br  0.74910490  0.56383268  0.05557016    -0.01800
Br1583     Br  0.73525589  0.66749415  0.89146938    -0.01700
Br1584     Br  0.77007559  0.57954617  0.88940880    -0.01700
loop_ 
_geom_bond_atom_site_label_1 
_geom_bond_atom_site_label_2 
_geom_bond_distance 
_geom_bond_site_symmetry_2 
_ccdc_geom_bond_type 
Zr1           O2   2.436       .  S
Zr1           O3   2.409       .  S
Zr1           O4   2.514       .  S
Zr1           O7   2.482       .  S
Zr1           O9   2.383       .  S
Zr1          O10   2.395       .  S
Zr1          O11   2.411       .  S
Zr1          O12   2.413       .  S
O2           H58   0.990       .  S
O2           H66   0.990       .  S
O3           C23   1.280       .  A
O4           C25   1.297       .  A
O5          Zr15   2.398       .  S
O5           C24   1.274       .  A
O6          Zr14   2.363       .  S
O6           C25   1.263       .  A
O7           C24   1.295       .  A
O8          Zr16   2.410       .  S
O8           C23   1.278       .  A
O9          Zr14   2.378       .  S
O9          Zr16   2.364       .  S
O10         Zr15   2.390       .  S
O10         Zr16   2.388       .  S
O10          H45   0.966       .  S
O11         Zr14   2.395       .  S
O11         Zr31   2.391       .  S
O11          H48   0.966       .  S
O12         Zr15   2.389       .  S
O12         Zr31   2.402       .  S
Zr13         O38   2.438       .  S
Zr13         O32   2.441       .  S
Zr13         O40   2.463       .  S
Zr13         O28   2.457       .  S
Zr13         O19   2.392       .  S
Zr13         O20   2.415       .  S
Zr13         O21   2.369       .  S
Zr13         O22   2.392       .  S
Zr14         O33   2.438       .  S
Zr14         O26   2.436       .  S
Zr14         O27   2.353       .  S
Zr14         O20   2.383       .  S
Zr14         O21   2.373       .  S
Zr15         O17   2.437       .  S
Zr15         O39   2.444       .  S
Zr15         O41   2.409       .  S
Zr15         O19   2.378       .  S
Zr15         O22   2.386       .  S
Zr16         O42   2.435       .  S
Zr16         O43   2.434       .  S
Zr16         O18   2.438       .  S
Zr16         O19   2.367       .  S
Zr16         O20   2.408       .  S
O17          H54   0.990       .  S
O18          H49   0.990       .  S
O18          H63   0.990       .  S
O20          H46   0.966       .  S
O21         Zr31   2.368       .  S
O22         Zr31   2.385       .  S
O22          H47   0.965       .  S
C23         C645   1.439       .  S
C24         C665   1.474       .  S
C25         C639   1.479       .  S
O26          H62   0.990       .  S
O27          C29   1.270       .  A
O28          C29   1.289       .  A
C29         C633   1.452       .  S
O30         Zr31   2.435       .  S
O30          H59   0.990       .  S
Zr31         O34   2.436       .  S
Zr31         O35   2.440       .  S
Zr31         O36   2.428       .  S
O32          C37   1.288       .  A
O33          H50   0.989       .  S
O33          H65   0.990       .  S
O34          H51   0.990       .  S
O35          H55   0.990       .  S
O35          H64   0.989       .  S
O36          C37   1.281       .  A
C37         C651   1.467       .  S
O38          H57   0.990       .  S
O38          H61   0.990       .  S
O39          H53   0.990       .  S
O39          H60   0.990       .  S
O40          C44   1.289       .  A
O41          C44   1.272       .  A
O42          H52   0.990       .  S
O43          H56   0.990       .  S
C44         C659   1.456       .  S
Zr67         O68   2.436       .  S
Zr67         O69   2.419       .  S
Zr67         O70   2.533       .  S
Zr67         O73   2.514       .  S
Zr67         O75   2.395       .  S
Zr67         O76   2.404       .  S
Zr67         O77   2.403       .  S
Zr67         O78   2.395       .  S
O68         H124   0.990       .  S
O68         H132   0.990       .  S
O69          C89   1.282       .  A
O70          C91   1.304       .  A
O71         Zr81   2.391       .  S
O71          C90   1.267       .  A
O72         Zr80   2.367       .  S
O72          C91   1.273       .  A
O73          C90   1.297       .  A
O74         Zr82   2.417       .  S
O74          C89   1.281       .  A
O75         Zr80   2.379       .  S
O75         Zr82   2.375       .  S
O76         Zr81   2.382       .  S
O76         Zr82   2.374       .  S
O76         H111   0.965       .  S
O77         Zr80   2.393       .  S
O77         Zr97   2.379       .  S
O77         H114   0.966       .  S
O78         Zr81   2.396       .  S
O78         Zr97   2.369       .  S
Zr79        O104   2.439       .  S
Zr79         O98   2.413       .  S
Zr79        O106   2.482       .  S
Zr79         O94   2.503       .  S
Zr79         O85   2.412       .  S
Zr79         O86   2.407       .  S
Zr79         O87   2.385       .  S
Zr79         O88   2.385       .  S
Zr80         O99   2.439       .  S
Zr80         O92   2.436   1_655  S
Zr80         O93   2.380       .  S
Zr80         O86   2.376       .  S
Zr80         O87   2.371       .  S
Zr81         O83   2.430       .  S
Zr81        O105   2.445       .  S
Zr81        O107   2.393       .  S
Zr81         O85   2.382       .  S
Zr81         O88   2.382       .  S
Zr82        O108   2.435       .  S
Zr82        O109   2.437       .  S
Zr82         O84   2.439   1_655  S
Zr82         O85   2.410       .  S
Zr82         O86   2.389       .  S
O83         H120   0.989       .  S
O84         H115   0.990       .  S
O84         H129   0.990       .  S
O86         H112   0.966       .  S
O87         Zr97   2.376       .  S
O88         Zr97   2.381       .  S
O88         H113   0.965       .  S
C89         C207   1.448       .  S
C90         C669   1.480       .  S
C91         C615   1.493       .  S
O92         H128   0.990       .  S
O93          C95   1.276       .  A
O94          C95   1.297       .  A
C95         C597   1.486       .  S
O96         Zr97   2.439       .  S
O96         H125   0.990       .  S
Zr97        O100   2.439       .  S
Zr97        O101   2.441       .  S
Zr97        O102   2.396       .  S
O98         C103   1.281       .  A
O99         H116   0.990       .  S
O99         H131   0.990       .  S
O100        H117   0.990       .  S
O101        H121   0.990       .  S
O101        H130   0.990       .  S
O102        C103   1.278       .  A
C103        C647   1.441       .  S
O104        H123   0.990       .  S
O104        H127   0.990       .  S
O105        H119   0.990       .  S
O105        H126   0.990       .  S
O106        C110   1.294       .  A
O107        C110   1.274       .  A
O108        H118   0.990       .  S
O109        H122   0.990       .  S
C110        C663   1.469       .  S
Zr133       O134   2.438       .  S
Zr133       O135   2.421       .  S
Zr133       O136   2.462       .  S
Zr133       O139   2.473       .  S
Zr133       O141   2.394       .  S
Zr133       O142   2.383       .  S
Zr133       O143   2.414       .  S
Zr133       O144   2.396       .  S
O134        H190   0.990       .  S
O134        H198   0.991       .  S
O135        C155   1.282       .  A
O136        C157   1.287       .  A
O137       Zr147   2.400       .  S
O137        C156   1.274       .  A
O138       Zr146   2.397       .  S
O138        C157   1.278       .  A
O139        C156   1.291       .  A
O140       Zr148   2.421       .  S
O140        C155   1.280       .  A
O141       Zr146   2.378       .  S
O141       Zr148   2.374       .  S
O142       Zr147   2.387       .  S
O142       Zr148   2.383       .  S
O142        H177   0.966       .  S
O143       Zr146   2.405       .  S
O143       Zr163   2.392       .  S
O143        H180   0.965       .  S
O144       Zr147   2.381       .  S
O144       Zr163   2.393       .  S
Zr145       O170   2.436   1_554  S
Zr145       O164   2.452       .  S
Zr145       O172   2.515   1_554  S
Zr145       O160   2.491   1_554  S
Zr145       O151   2.385       .  S
Zr145       O152   2.426       .  S
Zr145       O153   2.379       .  S
Zr145       O154   2.394       .  S
Zr146       O165   2.444       .  S
Zr146       O158   2.438       .  S
Zr146       O159   2.400       .  S
Zr146       O152   2.394       .  S
Zr146       O153   2.380       .  S
Zr147       O149   2.439       .  S
Zr147       O171   2.443       .  S
Zr147       O173   2.387       .  S
Zr147       O151   2.377       .  S
Zr147       O154   2.398       .  S
Zr148       O174   2.437       .  S
Zr148       O175   2.436       .  S
Zr148       O150   2.436       .  S
Zr148       O151   2.375       .  S
Zr148       O152   2.403       .  S
O149        H186   0.990       .  S
O150        H181   0.990   1_655  S
O150        H195   0.990   1_655  S
O152        H178   0.966       .  S
O153       Zr163   2.364       .  S
O154       Zr163   2.396       .  S
O154        H179   0.965       .  S
C155        C209   1.450       .  S
C156        C671   1.467       .  S
C157        C393   1.469       .  S
O158        H194   0.990   1_655  S
O159        C161   1.272       .  A
O160        C161   1.290   1_556  A
C161        C387   1.483   1_554  S
O162       Zr163   2.438       .  S
O162        H191   0.990       .  S
Zr163       O166   2.436       .  S
Zr163       O167   2.439       .  S
Zr163       O168   2.420       .  S
O164        C169   1.290       .  A
O165        H182   0.990       .  S
O165        H197   0.990       .  S
O166        H183   0.990       .  S
O167        H187   0.990       .  S
O167        H196   0.990       .  S
O168        C169   1.278       .  A
C169        C629   1.467       .  S
O170        H189   0.990       .  S
O170        H193   0.990       .  S
O171        H185   0.990       .  S
O171        H192   0.990       .  S
O172        C176   1.303   1_556  A
O173        C176   1.273       .  A
O174        H184   0.990       .  S
O175        H188   0.990   1_554  S
C176        C203   1.476   1_554  S
C199       C1576   1.495       .  S
C199        N200   1.355       .  A
C199        N204   1.371       .  A
N200        C201   1.349       .  A
C201        C239   1.448       .  S
C201        N202   1.352       .  A
N202        C203   1.348       .  A
C203        N204   1.375       .  A
C205       C1566   1.473       .  S
C205        N206   1.355       .  A
C205        N210   1.360       .  A
N206        C207   1.350   1_455  A
C207        N208   1.351       .  A
N208        C209   1.353       .  A
C209        N210   1.358   1_655  A
Zr211       O212   2.440       .  S
Zr211       O213   2.426       .  S
Zr211       O214   2.457       .  S
Zr211       O217   2.455       .  S
Zr211       O219   2.388       .  S
Zr211       O220   2.391       .  S
Zr211       O221   2.406       .  S
Zr211       O222   2.397       .  S
O212        H268   0.990       .  S
O212        H276   0.990       .  S
O213        C233   1.283       .  A
O214        C235   1.285       .  A
O215       Zr225   2.390       .  S
O215        C234   1.275       .  A
O216       Zr224   2.384       .  S
O216        C235   1.276       .  A
O217        C234   1.289       .  A
O218       Zr226   2.435       .  S
O218        C233   1.283       .  A
O219       Zr224   2.374       .  S
O219       Zr226   2.370       .  S
O220       Zr225   2.398       .  S
O220       Zr226   2.382       .  S
O220        H255   0.966       .  S
O221       Zr224   2.410       .  S
O221       Zr241   2.396       .  S
O221        H258   0.965       .  S
O222       Zr225   2.394       .  S
O222       Zr241   2.387       .  S
Zr223       O248   2.437       .  S
Zr223       O242   2.427       .  S
Zr223       O250   2.444       .  S
Zr223       O238   2.434       .  S
Zr223       O229   2.394       .  S
Zr223       O230   2.417       .  S
Zr223       O231   2.363       .  S
Zr223       O232   2.374       .  S
Zr224       O243   2.444       .  S
Zr224       O236   2.438       .  S
Zr224       O237   2.400       .  S
Zr224       O230   2.392       .  S
Zr224       O231   2.367       .  S
Zr225       O227   2.437       .  S
Zr225       O249   2.438       .  S
Zr225       O251   2.425       .  S
Zr225       O229   2.379       .  S
Zr225       O232   2.390       .  S
Zr226       O252   2.436       .  S
Zr226       O253   2.435       .  S
Zr226       O228   2.438   1_556  S
Zr226       O229   2.396       .  S
Zr226       O230   2.406       .  S
O227        H264   0.990       .  S
O228        H259   0.991       .  S
O228        H273   0.990       .  S
O230        H256   0.966       .  S
O231       Zr241   2.344       .  S
O232       Zr241   2.399       .  S
O232        H257   0.964       .  S
C233        C345   1.464       .  S
C234        C351   1.455       .  S
C235        C627   1.463       .  S
O236        H272   0.990   1_556  S
O237        C239   1.273       .  A
O238        C239   1.281       .  A
O240       Zr241   2.437       .  S
O240        H269   0.990       .  S
Zr241       O244   2.440       .  S
Zr241       O245   2.439       .  S
Zr241       O246   2.432       .  S
O242        C247   1.286       .  A
O243        H260   0.990       .  S
O243        H275   0.990       .  S
O244        H261   0.990       .  S
O245        H265   0.990       .  S
O245        H274   0.990       .  S
O246        C247   1.280       .  A
C247        C657   1.466       .  S
O248        H267   0.990       .  S
O248        H271   0.990       .  S
O249        H263   0.990       .  S
O249        H270   0.990       .  S
O250        C254   1.288       .  A
O251        C254   1.281       .  A
O252        H262   0.990       .  S
O253        H266   0.990       .  S
C254        C653   1.469       .  S
Zr277       O278   2.439       .  S
Zr277       O279   2.463       .  S
Zr277       O280   2.507       .  S
Zr277       O283   2.472       .  S
Zr277       O285   2.378       .  S
Zr277       O286   2.400       .  S
Zr277       O287   2.412       .  S
Zr277       O288   2.412       .  S
O278        H334   0.990       .  S
O278        H342   0.990       .  S
O279        C299   1.292       .  A
O280        C301   1.294       .  A
O281       Zr291   2.391       .  S
O281        C300   1.269       .  A
O282       Zr290   2.400       .  S
O282        C301   1.280       .  A
O283        C300   1.293       .  A
O284       Zr292   2.406       .  S
O284        C299   1.276       .  A
O285       Zr290   2.360       .  S
O285       Zr292   2.377       .  S
O286       Zr291   2.400       .  S
O286       Zr292   2.382       .  S
O286        H321   0.965       .  S
O287       Zr290   2.382       .  S
O287       Zr307   2.400       .  S
O287        H324   0.966       .  S
O288       Zr291   2.393       .  S
O288       Zr307   2.389       .  S
Zr289       O314   2.437       .  S
Zr289       O308   2.443       .  S
Zr289       O316   2.529       .  S
Zr289       O304   2.489       .  S
Zr289       O295   2.392       .  S
Zr289       O296   2.411       .  S
Zr289       O297   2.387       .  S
Zr289       O298   2.381       .  S
Zr290       O309   2.434       .  S
Zr290       O302   2.432   1_545  S
Zr290       O303   2.357       .  S
Zr290       O296   2.392       .  S
Zr290       O297   2.378       .  S
Zr291       O293   2.435       .  S
Zr291       O315   2.438       .  S
Zr291       O317   2.415       .  S
Zr291       O295   2.384       .  S
Zr291       O298   2.392       .  S
Zr292       O318   2.437   1_556  S
Zr292       O319   2.434       .  S
Zr292       O294   2.436   1_545  S
Zr292       O295   2.389       .  S
Zr292       O296   2.384       .  S
O293        H330   0.990       .  S
O294        H325   0.990       .  S
O294        H339   0.989       .  S
O296        H322   0.966       .  S
O297       Zr307   2.360       .  S
O298       Zr307   2.394       .  S
O298        H323   0.967       .  S
C299        C375   1.465   1_545  S
C300        C369   1.462       .  S
C301        C623   1.499       .  S
O302        H338   0.990       .  S
O303        C305   1.272       .  A
O304        C305   1.295       .  A
C305        C359   1.470       .  S
O306       Zr307   2.438       .  S
O306        H335   0.990       .  S
Zr307       O310   2.436       .  S
Zr307       O311   2.442       .  S
Zr307       O312   2.426       .  S
O308        C313   1.289       .  A
O309        H326   0.989       .  S
O309        H341   0.990       .  S
O310        H327   0.990       .  S
O311        H331   0.990       .  S
O311        H340   0.990       .  S
O312        C313   1.280       .  A
C313        C353   1.466       .  S
O314        H333   0.990       .  S
O314        H337   0.990       .  S
O315        H329   0.990   1_556  S
O315        H336   0.990   1_556  S
O316        C320   1.306       .  A
O317        C320   1.277       .  A
O318        H328   0.990       .  S
O319        H332   0.990       .  S
C320        C347   1.498       .  S
C343       C1556   1.531       .  S
C343        N344   1.364       .  A
C343        N348   1.382       .  A
N344        C345   1.361   1_554  A
C345        N346   1.351       .  A
N346        C347   1.350       .  A
C347        N348   1.383   1_556  A
C349       C1546   1.502       .  S
C349        N350   1.360       .  A
C349        N354   1.371       .  A
N350        C351   1.357       .  A
C351        N352   1.344       .  A
N352        C353   1.350       .  A
C353        N354   1.371       .  A
C355       C1536   1.461       .  S
C355        N356   1.365   1_545  A
C355        N360   1.365       .  A
N356        C357   1.349       .  A
C357        C491   1.473       .  S
C357        N358   1.351       .  A
N358        C359   1.357   1_565  A
C359        N360   1.352       .  A
C361       C1526   1.505       .  S
C361        N362   1.365       .  A
C361        N366   1.371   1_565  A
N362        C363   1.360   1_655  A
C363        C565   1.470       .  S
C363        N364   1.348   1_565  A
N364        C365   1.356   1_455  A
C365        C421   1.476   1_655  S
C365        N366   1.365       .  A
C367       C1516   1.516   1_556  S
C367        N368   1.369       .  A
C367        N372   1.361   1_556  A
N368        C369   1.369       .  A
C369        N370   1.347       .  A
N370        C371   1.345   1_556  A
C371        C440   1.450       .  S
C371        N372   1.358       .  A
C373       C1506   1.519       .  S
C373        N374   1.370       .  A
C373        N378   1.375   1_556  A
N374        C375   1.364       .  A
C375        N376   1.343   1_565  A
N376        C377   1.346   1_546  A
C377        C433   1.468   1_565  S
C377        N378   1.370       .  A
C379       C1496   1.548       .  S
C379        N380   1.372       .  A
C379        N384   1.384   1_565  A
N380        C381   1.364       .  A
C381        C572   1.478       .  S
C381        N382   1.338       .  A
N382        C383   1.350   1_565  A
C383        C425   1.490       .  S
C383        N384   1.379       .  A
C385       C1489   1.510       .  S
C385        N386   1.366       .  A
C385        N390   1.375       .  A
N386        C387   1.361       .  A
C387        N388   1.363   1_556  A
N388        C389   1.355   1_554  A
C389        C420   1.502   1_656  S
C389        N390   1.374       .  A
C391       C1476   1.488       .  S
C391        N392   1.369       .  A
C391        N396   1.370   1_655  A
N392        C393   1.359       .  A
C393        N394   1.351       .  A
N394        C395   1.343   1_655  A
C395        C419   1.471       .  S
C395        N396   1.363       .  A
Zr397       O398   2.438   1_455  S
Zr397       O399   2.470       .  S
Zr397       O400   2.473   1_455  S
Zr397       O403   2.532       .  S
Zr397       O405   2.401       .  S
Zr397       O406   2.379       .  S
Zr397       O407   2.445       .  S
Zr397       O408   2.393       .  S
O398        H454   0.990       .  S
O398        H462   0.990       .  S
O399        C419   1.292       .  A
O400        C421   1.284   1_655  A
O401       Zr411   2.414       .  S
O401        C420   1.279       .  A
O402       Zr410   2.408       .  S
O402        C421   1.274       .  A
O403        C420   1.305       .  A
O404       Zr412   2.412       .  S
O404        C419   1.276       .  A
O405       Zr410   2.395       .  S
O405       Zr412   2.361       .  S
O406       Zr411   2.388       .  S
O406       Zr412   2.395       .  S
O406        H441   0.966       .  S
O407       Zr410   2.409       .  S
O407       Zr427   2.398       .  S
O407        H444   0.966       .  S
O408       Zr411   2.385       .  S
O408       Zr427   2.401       .  S
Zr409       O434   2.440       .  S
Zr409       O428   2.444       .  S
Zr409       O436   2.454       .  S
Zr409       O424   2.458       .  S
Zr409       O415   2.402       .  S
Zr409       O416   2.411       .  S
Zr409       O417   2.381       .  S
Zr409       O418   2.388       .  S
Zr410       O429   2.436   1_545  S
Zr410       O422   2.437       .  S
Zr410       O423   2.440       .  S
Zr410       O416   2.391       .  S
Zr410       O417   2.375       .  S
Zr411       O413   2.436   1_554  S
Zr411       O435   2.444       .  S
Zr411       O437   2.394       .  S
Zr411       O415   2.390       .  S
Zr411       O418   2.403       .  S
Zr412       O438   2.438       .  S
Zr412       O439   2.436       .  S
Zr412       O414   2.438       .  S
Zr412       O415   2.383       .  S
Zr412       O416   2.394       .  S
O413        H450   0.990       .  S
O414        H445   0.990       .  S
O414        H459   0.990       .  S
O416        H442   0.965       .  S
O417       Zr427   2.372       .  S
O418       Zr427   2.388       .  S
O418        H443   0.966       .  S
O422        H458   0.990       .  S
O423        C425   1.290       .  A
O424        C425   1.285       .  A
O426       Zr427   2.438       .  S
O426        H455   0.990   1_554  S
Zr427       O430   2.438   1_545  S
Zr427       O431   2.441   1_554  S
Zr427       O432   2.434       .  S
O428        C433   1.287       .  A
O429        H446   0.990       .  S
O429        H461   0.990       .  S
O430        H447   0.990       .  S
O431        H451   0.990       .  S
O431        H460   0.990       .  S
O432        C433   1.280       .  A
O434        H453   0.990       .  S
O434        H457   0.990       .  S
O435        H449   0.990       .  S
O435        H456   0.990       .  S
O436        C440   1.286       .  A
O437        C440   1.270       .  A
O438        H448   0.990       .  S
O439        H452   0.990       .  S
Zr463       O464   2.439       .  S
Zr463       O465   2.441       .  S
Zr463       O466   2.486       .  S
Zr463       O469   2.439       .  S
Zr463       O471   2.375       .  S
Zr463       O472   2.390       .  S
Zr463       O473   2.410       .  S
Zr463       O474   2.420       .  S
O464        H520   0.990       .  S
O464        H528   0.990       .  S
O465        C485   1.286       .  A
O466        C487   1.292       .  A
O467       Zr477   2.409       .  S
O467        C486   1.281       .  A
O468       Zr476   2.407       .  S
O468        C487   1.280       .  A
O469        C486   1.286       .  A
O470       Zr478   2.464       .  S
O470        C485   1.289       .  A
O471       Zr476   2.377       .  S
O471       Zr478   2.373       .  S
O472       Zr477   2.393       .  S
O472       Zr478   2.365       .  S
O472        H507   0.966       .  S
O473       Zr476   2.384       .  S
O473       Zr493   2.399       .  S
O473        H510   0.967       .  S
O474       Zr477   2.397       .  S
O474       Zr493   2.400       .  S
Zr475       O500   2.440       .  S
Zr475       O494   2.477       .  S
Zr475       O502   2.507       .  S
Zr475       O490   2.483       .  S
Zr475       O481   2.413       .  S
Zr475       O482   2.430       .  S
Zr475       O483   2.380       .  S
Zr475       O484   2.385       .  S
Zr476       O495   2.436       .  S
Zr476       O488   2.432       .  S
Zr476       O489   2.385       .  S
Zr476       O482   2.395       .  S
Zr476       O483   2.382       .  S
Zr477       O479   2.434       .  S
Zr477       O501   2.439       .  S
Zr477       O503   2.429       .  S
Zr477       O481   2.381       .  S
Zr477       O484   2.392       .  S
Zr478       O504   2.437       .  S
Zr478       O505   2.436       .  S
Zr478       O480   2.436   1_565  S
Zr478       O481   2.411       .  S
Zr478       O482   2.409       .  S
O479        H516   0.990       .  S
O480        H511   0.990       .  S
O480        H525   0.990       .  S
O482        H508   0.966       .  S
O483       Zr493   2.366       .  S
O484       Zr493   2.394       .  S
O484        H509   0.966       .  S
C485        C605   1.487       .  S
C486        C611   1.457       .  S
C487        C621   1.488       .  S
O488        H524   0.990   1_565  S
O489        C491   1.275       .  A
O490        C491   1.291       .  A
O492       Zr493   2.438       .  S
O492        H521   0.990       .  S
Zr493       O496   2.438       .  S
Zr493       O497   2.440       .  S
Zr493       O498   2.425       .  S
O494        C499   1.294       .  A
O495        H512   0.989       .  S
O495        H527   0.990       .  S
O496        H513   0.990       .  S
O497        H517   0.990       .  S
O497        H526   0.990       .  S
O498        C499   1.279       .  A
C499        C635   1.482       .  S
O500        H519   0.991       .  S
O500        H523   0.990       .  S
O501        H515   0.990       .  S
O501        H522   0.990       .  S
O502        C506   1.298       .  A
O503        C506   1.283       .  A
O504        H514   0.990       .  S
O505        H518   0.990       .  S
C506        C641   1.504       .  S
Zr529       O530   2.436       .  S
Zr529       O531   2.422       .  S
Zr529       O532   2.506       .  S
Zr529       O535   2.494       .  S
Zr529       O537   2.385       .  S
Zr529       O538   2.391       .  S
Zr529       O539   2.417       .  S
Zr529       O540   2.408       .  S
O530        H586   0.990       .  S
O530        H594   0.990       .  S
O531        C551   1.282       .  A
O532        C553   1.298       .  A
O533       Zr543   2.425       .  S
O533        C552   1.281       .  A
O534       Zr542   2.370       .  S
O534        C553   1.274       .  A
O535        C552   1.297       .  A
O536       Zr544   2.433       .  S
O536        C551   1.283       .  A
O537       Zr542   2.386       .  S
O537       Zr544   2.361       .  S
O538       Zr543   2.387       .  S
O538       Zr544   2.378       .  S
O538        H573   0.967       .  S
O539       Zr542   2.391       .  S
O539       Zr559   2.398       .  S
O539        H576   0.966       .  S
O540       Zr543   2.384       .  S
O540       Zr559   2.396       .  S
Zr541       O566   2.440       .  S
Zr541       O560   2.475       .  S
Zr541       O568   2.493       .  S
Zr541       O556   2.529       .  S
Zr541       O547   2.418       .  S
Zr541       O548   2.415       .  S
Zr541       O549   2.381       .  S
Zr541       O550   2.400       .  S
Zr542       O561   2.437   1_455  S
Zr542       O554   2.433       .  S
Zr542       O555   2.400       .  S
Zr542       O548   2.392       .  S
Zr542       O549   2.366       .  S
Zr543       O545   2.437   1_565  S
Zr543       O567   2.441       .  S
Zr543       O569   2.404       .  S
Zr543       O547   2.396       .  S
Zr543       O550   2.399       .  S
Zr544       O570   2.436       .  S
Zr544       O571   2.436       .  S
Zr544       O546   2.436       .  S
Zr544       O547   2.396       .  S
Zr544       O548   2.398       .  S
O545        H582   0.990       .  S
O546        H577   0.990       .  S
O546        H591   0.990       .  S
O548        H574   0.965       .  S
O549       Zr559   2.378       .  S
O550       Zr559   2.392       .  S
O550        H575   0.965       .  S
C551        C609   1.462       .  S
C552        C603   1.491       .  S
C553        C599   1.484       .  S
O554        H590   0.990       .  S
O555        C557   1.279       .  A
O556        C557   1.300       .  A
C557        C617   1.505       .  S
O558       Zr559   2.437       .  S
O558        H587   0.990       .  S
Zr559       O562   2.436   1_455  S
Zr559       O563   2.443   1_565  S
Zr559       O564   2.407       .  S
O560        C565   1.292       .  A
O561        H578   0.990       .  S
O561        H593   0.990       .  S
O562        H579   0.990       .  S
O563        H583   0.990       .  S
O563        H592   0.989       .  S
O564        C565   1.277       .  A
O566        H585   0.990       .  S
O566        H589   0.990       .  S
O567        H581   0.991       .  S
O567        H588   0.990       .  S
O568        C572   1.299       .  A
O569        C572   1.276       .  A
O570        H580   0.991       .  S
O571        H584   0.990       .  S
C595       C1466   1.476       .  S
C595        N596   1.371   1_455  A
C595        N600   1.370       .  A
N596        C597   1.355       .  A
C597        N598   1.355   1_655  A
N598        C599   1.356       .  A
C599        N600   1.353       .  A
C601       C1456   1.527       .  S
C601        N602   1.369       .  A
C601        N606   1.370       .  A
N602        C603   1.368   1_545  A
C603        N604   1.358       .  A
N604        C605   1.363       .  A
C605        N606   1.369   1_565  A
C607       C1446   1.476       .  S
C607        N608   1.360       .  A
C607        N612   1.354       .  A
N608        C609   1.361       .  A
C609        N610   1.359       .  A
N610        C611   1.355       .  A
C611        N612   1.353       .  A
C613       C1439   1.482       .  S
C613        N614   1.370   1_455  A
C613        N618   1.378       .  A
N614        C615   1.353       .  A
C615        N616   1.360   1_655  A
N616        C617   1.358       .  A
C617        N618   1.363       .  A
C619       C1429   1.507       .  S
C619        N620   1.374       .  A
C619        N624   1.381   1_565  A
N620        C621   1.356       .  A
C621        N622   1.348       .  A
N622        C623   1.353   1_565  A
C623        N624   1.368       .  A
C625       C1416   1.490       .  S
C625        N626   1.369       .  A
C625        N630   1.374   1_556  A
N626        C627   1.355       .  A
C627        N628   1.346       .  A
N628        C629   1.338   1_556  A
C629        N630   1.364       .  A
C631       C1406   1.489       .  S
C631        N632   1.356       .  A
C631        N636   1.376       .  A
N632        C633   1.344       .  A
C633        N634   1.352       .  A
N634        C635   1.347       .  A
C635        N636   1.371       .  A
C637       C1399   1.491       .  S
C637        N638   1.357       .  A
C637        N642   1.367       .  A
N638        C639   1.349       .  A
C639        N640   1.372       .  A
N640        C641   1.365       .  A
C641        N642   1.369       .  A
C643       C1386   1.465       .  S
C643        N644   1.353       .  A
C643        N648   1.351       .  A
N644        C645   1.349       .  A
C645        N646   1.352       .  A
N646        C647   1.353       .  A
C647        N648   1.353       .  A
C649       C1376   1.504       .  S
C649        N650   1.368       .  A
C649        N654   1.368       .  A
N650        C651   1.364       .  A
C651        N652   1.349       .  A
N652        C653   1.349       .  A
C653        N654   1.364       .  A
C655       C1366   1.510       .  S
C655        N656   1.374       .  A
C655        N660   1.364       .  A
N656        C657   1.372       .  A
C657        N658   1.348       .  A
N658        C659   1.338       .  A
C659        N660   1.358       .  A
C661       C1356   1.523       .  S
C661        N662   1.361       .  A
C661        N666   1.367       .  A
N662        C663   1.362       .  A
C663        N664   1.357       .  A
N664        C665   1.358       .  A
C665        N666   1.371       .  A
C667       C1346   1.517       .  S
C667        N668   1.370       .  A
C667        N672   1.363       .  A
N668        C669   1.375       .  A
C669        N670   1.355       .  A
N670        C671   1.355       .  A
C671        N672   1.364       .  A
Zr673       O674   2.436       .  S
Zr673       O675   2.448       .  S
Zr673       O676   2.496       .  S
Zr673       O679   2.508       .  S
Zr673       O681   2.386       .  S
Zr673       O682   2.383       .  S
Zr673       O683   2.410       .  S
Zr673       O684   2.412       .  S
O674        H730   0.990       .  S
O674        H738   0.990       .  S
O675        C695   1.288       .  A
O676        C697   1.298       .  A
O677       Zr687   2.360       .  S
O677        C696   1.272       .  A
O678       Zr686   2.372       .  S
O678        C697   1.270       .  A
O679        C696   1.297       .  A
O680       Zr688   2.421       .  S
O680        C695   1.280       .  A
O681       Zr686   2.392       .  S
O681       Zr688   2.382       .  S
O682       Zr687   2.365       .  S
O682       Zr688   2.361       .  S
O682        H717   0.966       .  S
O683       Zr686   2.398       .  S
O683       Zr703   2.391       .  S
O683        H720   0.965       .  S
O684       Zr687   2.381       .  S
O684       Zr703   2.401       .  S
Zr685       O710   2.437       .  S
Zr685       O704   2.497       .  S
Zr685       O712   2.510       .  S
Zr685       O700   2.556       .  S
Zr685       O691   2.431       .  S
Zr685       O692   2.413       .  S
Zr685       O693   2.388       .  S
Zr685       O694   2.392       .  S
Zr686       O705   2.437       .  S
Zr686       O698   2.435       .  S
Zr686       O699   2.385       .  S
Zr686       O692   2.400       .  S
Zr686       O693   2.387       .  S
Zr687       O689   2.438       .  S
Zr687       O711   2.439       .  S
Zr687       O713   2.342       .  S
Zr687       O691   2.385       .  S
Zr687       O694   2.386       .  S
Zr688       O714   2.435       .  S
Zr688       O715   2.437       .  S
Zr688       O690   2.439   1_455  S
Zr688       O691   2.401       .  S
Zr688       O692   2.381       .  S
O689        H726   0.991       .  S
O690        H721   0.990       .  S
O690        H735   0.990       .  S
O692        H718   0.963       .  S
O693       Zr703   2.396       .  S
O694       Zr703   2.352       .  S
O694        H719   0.964       .  S
C695       C1263   1.465       .  S
C696       C1323   1.484       .  S
C697       C1271   1.460       .  S
O698        H734   0.990   1_455  S
O699        C701   1.272       .  A
O700        C701   1.311       .  A
C701       C1247   1.484       .  S
O702       Zr703   2.439       .  S
O702        H731   0.990       .  S
Zr703       O706   2.436       .  S
Zr703       O707   2.440       .  S
Zr703       O708   2.439       .  S
O704        C709   1.297       .  A
O705        H722   0.990       .  S
O705        H737   0.990       .  S
O706        H723   0.990       .  S
O707        H727   0.990       .  S
O707        H736   0.990       .  S
O708        C709   1.284       .  A
C709       C1253   1.490       .  S
O710        H729   0.990       .  S
O710        H733   0.991       .  S
O711        H725   0.990       .  S
O711        H732   0.990       .  S
O712        C716   1.297       .  A
O713        C716   1.263       .  A
O714        H724   0.990       .  S
O715        H728   0.990       .  S
C716        C957   1.466       .  S
Zr739       O740   2.437       .  S
Zr739       O741   2.462       .  S
Zr739       O742   2.499       .  S
Zr739       O745   2.509       .  S
Zr739       O747   2.395       .  S
Zr739       O748   2.377       .  S
Zr739       O749   2.420       .  S
Zr739       O750   2.417       .  S
O740        H796   0.990       .  S
O740        H804   0.990       .  S
O741        C761   1.291       .  A
O742        C763   1.299       .  A
O743       Zr753   2.413       .  S
O743        C762   1.282       .  A
O744       Zr752   2.385       .  S
O744        C763   1.274       .  A
O745        C762   1.296       .  A
O746       Zr754   2.385       .  S
O746        C761   1.274       .  A
O747       Zr752   2.401       .  S
O747       Zr754   2.388       .  S
O748       Zr753   2.347       .  S
O748       Zr754   2.377       .  S
O748        H783   0.964       .  S
O749       Zr752   2.408       .  S
O749       Zr769   2.387       .  S
O749        H786   0.965       .  S
O750       Zr753   2.381       .  S
O750       Zr769   2.411       .  S
Zr751       O776   2.437   1_545  S
Zr751       O770   2.428       .  S
Zr751       O778   2.476       .  S
Zr751       O766   2.516       .  S
Zr751       O757   2.407       .  S
Zr751       O758   2.398       .  S
Zr751       O759   2.382       .  S
Zr751       O760   2.394       .  S
Zr752       O771   2.435       .  S
Zr752       O764   2.436       .  S
Zr752       O765   2.418       .  S
Zr752       O758   2.395       .  S
Zr752       O759   2.388       .  S
Zr753       O755   2.435       .  S
Zr753       O777   2.436       .  S
Zr753       O779   2.368       .  S
Zr753       O757   2.396       .  S
Zr753       O760   2.365       .  S
Zr754       O780   2.435       .  S
Zr754       O781   2.436       .  S
Zr754       O756   2.440       .  S
Zr754       O757   2.377       .  S
Zr754       O758   2.376       .  S
O755        H792   0.990       .  S
O756        H787   0.990       .  S
O756        H801   0.990       .  S
O758        H784   0.965       .  S
O759       Zr769   2.385       .  S
O760       Zr769   2.361       .  S
O760        H785   0.965       .  S
C761        C807   1.450       .  S
C762       C1295   1.505       .  S
C763       C1319   1.465       .  S
O764        H800   0.990       .  S
O765        C767   1.279       .  A
O766        C767   1.303       .  A
C767       C1311   1.490       .  S
O768       Zr769   2.439       .  S
O768        H797   0.991       .  S
Zr769       O772   2.439       .  S
Zr769       O773   2.436       .  S
Zr769       O774   2.422       .  S
O770        C775   1.284       .  A
O771        H788   0.989       .  S
O771        H803   0.990       .  S
O772        H789   0.990       .  S
O773        H793   0.990       .  S
O773        H802   0.990       .  S
O774        C775   1.281       .  A
C775       C1281   1.455   1_545  S
O776        H795   0.990       .  S
O776        H799   0.990       .  S
O777        H791   0.989       .  S
O777        H798   0.990       .  S
O778        C782   1.292       .  A
O779        C782   1.275       .  A
O780        H790   0.990       .  S
O781        H794   0.991       .  S
C782       C1257   1.468       .  S
C805       C1549   1.502       .  S
C805        N806   1.362       .  A
C805        N810   1.364       .  A
N806        C807   1.362       .  A
C807        N808   1.342       .  A
N808        C809   1.344       .  A
C809        C835   1.450       .  S
C809        N810   1.366       .  A
Zr811       O812   2.440       .  S
Zr811       O813   2.472       .  S
Zr811       O814   2.456       .  S
Zr811       O817   2.467       .  S
Zr811       O819   2.390       .  S
Zr811       O820   2.375       .  S
Zr811       O821   2.419       .  S
Zr811       O822   2.417       .  S
O812        H868   0.990       .  S
O812        H876   0.990       .  S
O813        C833   1.294       .  A
O814        C835   1.290       .  A
O815       Zr825   2.456       .  S
O815        C834   1.292       .  A
O816       Zr824   2.396       .  S
O816        C835   1.277       .  A
O817        C834   1.285       .  A
O818       Zr826   2.420       .  S
O818        C833   1.278       .  A
O819       Zr824   2.408       .  S
O819       Zr826   2.389       .  S
O820       Zr825   2.355       .  S
O820       Zr826   2.375       .  S
O820        H855   0.965       .  S
O821       Zr824   2.406       .  S
O821       Zr841   2.386       .  S
O821        H858   0.964       .  S
O822       Zr825   2.368       .  S
O822       Zr841   2.409       .  S
Zr823       O848   2.440       .  S
Zr823       O842   2.485       .  S
Zr823       O850   2.484       .  S
Zr823       O838   2.550       .  S
Zr823       O829   2.427       .  S
Zr823       O830   2.410       .  S
Zr823       O831   2.380       .  S
Zr823       O832   2.406       .  S
Zr824       O843   2.437       .  S
Zr824       O836   2.433       .  S
Zr824       O837   2.424       .  S
Zr824       O830   2.400       .  S
Zr824       O831   2.393       .  S
Zr825       O827   2.433       .  S
Zr825       O849   2.440       .  S
Zr825       O851   2.370       .  S
Zr825       O829   2.410       .  S
Zr825       O832   2.383       .  S
Zr826       O852   2.435       .  S
Zr826       O853   2.438       .  S
Zr826       O828   2.440       .  S
Zr826       O829   2.389       .  S
Zr826       O830   2.394       .  S
O827        H864   0.990       .  S
O828        H859   0.990       .  S
O828        H873   0.990       .  S
O830        H856   0.964       .  S
O831       Zr841   2.397       .  S
O832       Zr841   2.365       .  S
O832        H857   0.965       .  S
C833       C1317   1.476       .  S
C834        C879   1.503       .  S
O836        H872   0.990       .  S
O837        C839   1.280       .  A
O838        C839   1.308       .  A
C839       C1325   1.508       .  S
O840       Zr841   2.443       .  S
O840        H869   0.990       .  S
Zr841       O844   2.437       .  S
Zr841       O845   2.442       .  S
Zr841       O846   2.421       .  S
O842        C847   1.295       .  A
O843        H860   0.990       .  S
O843        H875   0.990       .  S
O844        H861   0.990       .  S
O845        H865   0.990       .  S
O845        H874   0.990       .  S
O846        C847   1.280       .  A
C847        C959   1.481       .  S
O848        H867   0.990       .  S
O848        H871   0.990       .  S
O849        H863   0.990       .  S
O849        H870   0.990       .  S
O850        C854   1.293       .  A
O851        C854   1.276       .  A
O852        H862   0.990       .  S
O853        H866   0.990       .  S
C854       C1301   1.472       .  S
C877       C1349   1.518       .  S
C877        N878   1.389       .  A
C877        N882   1.375       .  A
N878        C879   1.376       .  A
C879        N880   1.342       .  A
N880        C881   1.345       .  A
C881        C912   1.477       .  S
C881        N882   1.359       .  A
C883       C1409   1.471       .  S
C883        N884   1.349       .  A
C883        N888   1.364   1_556  A
N884        C885   1.342   1_556  A
C885        C984   1.437       .  S
C885        N886   1.352       .  A
N886        C887   1.351       .  A
C887        C913   1.457       .  S
C887        N888   1.370       .  A
Zr889       O890   2.438       .  S
Zr889       O891   2.456       .  S
Zr889       O892   2.514       .  S
Zr889       O895   2.468       .  S
Zr889       O897   2.383       .  S
Zr889       O898   2.396       .  S
Zr889       O899   2.403       .  S
Zr889       O900   2.424       .  S
O890        H946   0.990       .  S
O890        H954   0.990       .  S
O891        C911   1.290       .  A
O892        C913   1.299       .  A
O893       Zr903   2.395       .  S
O893        C912   1.280       .  A
O894       Zr902   2.356       .  S
O894        C913   1.268       .  A
O895        C912   1.288       .  A
O896       Zr904   2.418       .  S
O896        C911   1.278       .  A
O897       Zr902   2.385       .  S
O897       Zr904   2.392       .  S
O898       Zr903   2.376       .  S
O898       Zr904   2.367       .  S
O898        H933   0.966       .  S
O899       Zr902   2.397       .  S
O899       Zr919   2.381       .  S
O899        H936   0.963       .  S
O900       Zr903   2.385       .  S
O900       Zr919   2.397       .  S
Zr901       O926   2.435       .  S
Zr901       O920   2.468       .  S
Zr901       O928   2.465       .  S
Zr901       O916   2.511       .  S
Zr901       O907   2.420       .  S
Zr901       O908   2.405       .  S
Zr901       O909   2.370       .  S
Zr901       O910   2.393       .  S
Zr902       O921   2.436       .  S
Zr902       O914   2.438       .  S
Zr902       O915   2.359       .  S
Zr902       O908   2.394       .  S
Zr902       O909   2.388       .  S
Zr903       O905   2.435       .  S
Zr903       O927   2.440       .  S
Zr903       O929   2.401       .  S
Zr903       O907   2.381       .  S
Zr903       O910   2.367       .  S
Zr904       O930   2.437       .  S
Zr904       O931   2.438       .  S
Zr904       O906   2.438       .  S
Zr904       O907   2.386       .  S
Zr904       O908   2.392       .  S
O905        H942   0.990       .  S
O906        H937   0.990       .  S
O906        H951   0.990       .  S
O908        H934   0.965       .  S
O909       Zr919   2.387       .  S
O910       Zr919   2.366       .  S
O910        H935   0.965       .  S
C911       C1275   1.466       .  S
O914        H950   0.990       .  S
O915        C917   1.265       .  A
O916        C917   1.300       .  A
C917       C1287   1.462       .  S
O918       Zr919   2.440       .  S
O918        H947   0.990       .  S
Zr919       O922   2.440       .  S
Zr919       O923   2.436       .  S
Zr919       O924   2.415       .  S
O920        C925   1.293       .  A
O921        H938   0.990       .  S
O921        H953   0.990       .  S
O922        H939   0.990       .  S
O923        H943   0.990       .  S
O923        H952   0.989       .  S
O924        C925   1.278       .  A
C925       C1305   1.466       .  S
O926        H945   0.990       .  S
O926        H949   0.990       .  S
O927        H941   0.990       .  S
O927        H948   0.990       .  S
O928        C932   1.289       .  A
O929        C932   1.281       .  A
O930        H940   0.990       .  S
O931        H944   0.990       .  S
C932       C1299   1.477       .  S
C955       C1449   1.493       .  S
C955        N956   1.363       .  A
C955        N960   1.369       .  A
N956        C957   1.351       .  A
C957        N958   1.361       .  A
N958        C959   1.348       .  A
C959        N960   1.363       .  A
Zr961       O962   2.437   1_554  S
Zr961       O963   2.429       .  S
Zr961       O964   2.440       .  S
Zr961       O967   2.402       .  S
Zr961       O969   2.375       .  S
Zr961       O970   2.401       .  S
Zr961       O971   2.398       .  S
Zr961       O972   2.408       .  S
O962       H1018   0.990       .  S
O962       H1026   0.990       .  S
O963        C983   1.286       .  A
O964        C985   1.286       .  A
O965       Zr975   2.387       .  S
O965        C984   1.268       .  A
O966       Zr974   2.413       .  S
O966        C985   1.280       .  A
O967        C984   1.273       .  A
O968       Zr976   2.443       .  S
O968        C983   1.283       .  A
O969       Zr974   2.388       .  S
O969       Zr976   2.387       .  S
O970       Zr975   2.375       .  S
O970       Zr976   2.357       .  S
O970       H1005   0.966       .  S
O971       Zr974   2.386       .  S
O971       Zr991   2.396       .  S
O971       H1008   0.965       .  S
O972       Zr975   2.384       .  S
O972       Zr991   2.381       .  S
Zr973       O998   2.440       .  S
Zr973       O992   2.474       .  S
Zr973      O1000   2.450       .  S
Zr973       O988   2.461       .  S
Zr973       O979   2.416       .  S
Zr973       O980   2.415       .  S
Zr973       O981   2.379       .  S
Zr973       O982   2.384       .  S
Zr974       O993   2.434       .  S
Zr974       O986   2.436       .  S
Zr974       O987   2.394       .  S
Zr974       O980   2.400       .  S
Zr974       O981   2.393       .  S
Zr975       O977   2.440       .  S
Zr975       O999   2.441       .  S
Zr975      O1001   2.377       .  S
Zr975       O979   2.389       .  S
Zr975       O982   2.381       .  S
Zr976      O1002   2.436       .  S
Zr976      O1003   2.435       .  S
Zr976       O978   2.437       .  S
Zr976       O979   2.405       .  S
Zr976       O980   2.391       .  S
O977       H1014   0.989       .  S
O978       H1009   0.990       .  S
O978       H1023   0.990       .  S
O980       H1006   0.965       .  S
O981       Zr991   2.386       .  S
O982       Zr991   2.379       .  S
O982       H1007   0.965       .  S
C983       C1029   1.470       .  S
C985       C1337   1.459   1_554  S
O986       H1022   0.990       .  S
O987        C989   1.276       .  A
O988        C989   1.290       .  A
C989       C1283   1.455       .  S
O990       Zr991   2.439       .  S
O990       H1019   0.990       .  S
Zr991       O994   2.438       .  S
Zr991       O995   2.438       .  S
Zr991       O996   2.414       .  S
O992        C997   1.292       .  A
O993       H1010   0.990       .  S
O993       H1025   0.990       .  S
O994       H1011   0.990   1_565  S
O995       H1015   0.990       .  S
O995       H1024   0.990       .  S
O996        C997   1.279       .  A
C997       C1313   1.472       .  S
O998       H1017   0.990       .  S
O998       H1021   0.990       .  S
O999       H1013   0.989       .  S
O999       H1020   0.989       .  S
O1000      C1004   1.284       .  A
O1001      C1004   1.275       .  A
O1002      H1012   0.990       .  S
O1003      H1016   0.990       .  S
C1004      C1277   1.455       .  S
C1027      C1579   1.514       .  S
C1027      N1028   1.372   1_556  A
C1027      N1032   1.357       .  A
N1028      C1029   1.373       .  A
C1029      N1030   1.354   1_554  A
N1030      C1031   1.344       .  A
C1031      C1133   1.453       .  S
C1031      N1032   1.354       .  A
Zr1033     O1034   2.436   1_545  S
Zr1033     O1035   2.451       .  S
Zr1033     O1036   2.524       .  S
Zr1033     O1039   2.487       .  S
Zr1033     O1041   2.386       .  S
Zr1033     O1042   2.398       .  S
Zr1033     O1043   2.404       .  S
Zr1033     O1044   2.419       .  S
O1034      H1090   0.990       .  S
O1034      H1098   0.990       .  S
O1035      C1055   1.286       .  A
O1036      C1057   1.304       .  A
O1037     Zr1047   2.385       .  S
O1037      C1056   1.278       .  A
O1038     Zr1046   2.379       .  S
O1038      C1057   1.272       .  A
O1039      C1056   1.294       .  A
O1040     Zr1048   2.415       .  S
O1040      C1055   1.281       .  A
O1041     Zr1046   2.391       .  S
O1041     Zr1048   2.382       .  S
O1042     Zr1047   2.380       .  S
O1042     Zr1048   2.361       .  S
O1042      H1077   0.965       .  S
O1043     Zr1046   2.394       .  S
O1043     Zr1063   2.390       .  S
O1043      H1080   0.965       .  S
O1044     Zr1047   2.394       .  S
O1044     Zr1063   2.388       .  S
Zr1045     O1070   2.437       .  S
Zr1045     O1064   2.439       .  S
Zr1045     O1072   2.512       .  S
Zr1045     O1060   2.485       .  S
Zr1045     O1051   2.416       .  S
Zr1045     O1052   2.412       .  S
Zr1045     O1053   2.388       .  S
Zr1045     O1054   2.386       .  S
Zr1046     O1065   2.437       .  S
Zr1046     O1058   2.436       .  S
Zr1046     O1059   2.374       .  S
Zr1046     O1052   2.400       .  S
Zr1046     O1053   2.382       .  S
Zr1047     O1049   2.433       .  S
Zr1047     O1071   2.440       .  S
Zr1047     O1073   2.416       .  S
Zr1047     O1051   2.381       .  S
Zr1047     O1054   2.378       .  S
Zr1048     O1074   2.434       .  S
Zr1048     O1075   2.435       .  S
Zr1048     O1050   2.438       .  S
Zr1048     O1051   2.405       .  S
Zr1048     O1052   2.376       .  S
O1049      H1086   0.990       .  S
O1050      H1081   0.990       .  S
O1050      H1095   0.990       .  S
O1052      H1078   0.964       .  S
O1053     Zr1063   2.380       .  S
O1054     Zr1063   2.377       .  S
O1054      H1079   0.965       .  S
C1055      C1101   1.467   1_545  S
C1056      C1259   1.479   1_545  S
C1057      C1341   1.482   1_545  S
O1058      H1094   0.990       .  S
O1059      C1061   1.272       .  A
O1060      C1061   1.295       .  A
C1061      C1269   1.450       .  S
O1062     Zr1063   2.440       .  S
O1062      H1091   0.990       .  S
Zr1063     O1066   2.437       .  S
Zr1063     O1067   2.439       .  S
Zr1063     O1068   2.414       .  S
O1064      C1069   1.285       .  A
O1065      H1082   0.990   1_655  S
O1065      H1097   0.990   1_655  S
O1066      H1083   0.990       .  S
O1067      H1087   0.990       .  S
O1067      H1096   0.989       .  S
O1068      C1069   1.280       .  A
C1069      C1265   1.460       .  S
O1070      H1089   0.990       .  S
O1070      H1093   0.990       .  S
O1071      H1085   0.990       .  S
O1071      H1092   0.990       .  S
O1072      C1076   1.297       .  A
O1073      C1076   1.283       .  A
O1074      H1084   0.990       .  S
O1075      H1088   0.990       .  S
C1076      C1293   1.507       .  S
C1099      C1539   1.455   1_565  S
C1099      N1100   1.352   1_565  A
C1099      N1104   1.352       .  A
N1100      C1101   1.355   1_545  A
C1101      N1102   1.359       .  A
N1102      C1103   1.365       .  A
C1103      C1148   1.459       .  S
C1103      N1104   1.349       .  A
Zr1105     O1106   2.438       .  S
Zr1105     O1107   2.423       .  S
Zr1105     O1108   2.469       .  S
Zr1105     O1111   2.467       .  S
Zr1105     O1113   2.377       .  S
Zr1105     O1114   2.383       .  S
Zr1105     O1115   2.402       .  S
Zr1105     O1116   2.407       .  S
O1106      H1162   0.990   1_655  S
O1106      H1170   0.990       .  S
O1107      C1127   1.282       .  A
O1108      C1129   1.291       .  A
O1109     Zr1119   2.378       .  S
O1109      C1128   1.275       .  A
O1110     Zr1118   2.371       .  S
O1110      C1129   1.271       .  A
O1111      C1128   1.290       .  A
O1112     Zr1120   2.405       .  S
O1112      C1127   1.277       .  A
O1113     Zr1118   2.382       .  S
O1113     Zr1120   2.377       .  S
O1114     Zr1119   2.378       .  S
O1114     Zr1120   2.370       .  S
O1114      H1149   0.965       .  S
O1115     Zr1118   2.391       .  S
O1115     Zr1135   2.397       .  S
O1115      H1152   0.966       .  S
O1116     Zr1119   2.386       .  S
O1116     Zr1135   2.398       .  S
Zr1117     O1142   2.439       .  S
Zr1117     O1136   2.437       .  S
Zr1117     O1144   2.453       .  S
Zr1117     O1132   2.476       .  S
Zr1117     O1123   2.422       .  S
Zr1117     O1124   2.404       .  S
Zr1117     O1125   2.379       .  S
Zr1117     O1126   2.405       .  S
Zr1118     O1137   2.435       .  S
Zr1118     O1130   2.435       .  S
Zr1118     O1131   2.370       .  S
Zr1118     O1124   2.394       .  S
Zr1118     O1125   2.376       .  S
Zr1119     O1121   2.442       .  S
Zr1119     O1143   2.445       .  S
Zr1119     O1145   2.385       .  S
Zr1119     O1123   2.396       .  S
Zr1119     O1126   2.389       .  S
Zr1120     O1146   2.436       .  S
Zr1120     O1147   2.435       .  S
Zr1120     O1122   2.437       .  S
Zr1120     O1123   2.385       .  S
Zr1120     O1124   2.383       .  S
O1121      H1158   0.989       .  S
O1122      H1153   0.990       .  S
O1122      H1167   0.990       .  S
O1124      H1150   0.965       .  S
O1125     Zr1135   2.379       .  S
O1126     Zr1135   2.370       .  S
O1126      H1151   0.965       .  S
C1127      C1239   1.445       .  S
C1128      C1343   1.469       .  S
C1129      C1331   1.452       .  S
O1130      H1166   0.990       .  S
O1131      C1133   1.272       .  A
O1132      C1133   1.292       .  A
O1134     Zr1135   2.438       .  S
O1134      H1163   0.991       .  S
Zr1135     O1138   2.439       .  S
Zr1135     O1139   2.438       .  S
Zr1135     O1140   2.416       .  S
O1136      C1141   1.284       .  A
O1137      H1154   0.990       .  S
O1137      H1169   0.990       .  S
O1138      H1155   0.990       .  S
O1139      H1159   0.990   1_565  S
O1139      H1168   0.990       .  S
O1140      C1141   1.279       .  A
C1141      C1335   1.459       .  S
O1142      H1161   0.990       .  S
O1142      H1165   0.990       .  S
O1143      H1157   0.989       .  S
O1143      H1164   0.989       .  S
O1144      C1148   1.283       .  A
O1145      C1148   1.266       .  A
O1146      H1156   0.990       .  S
O1147      H1160   0.990       .  S
Zr1171     O1172   2.437   1_455  S
Zr1171     O1173   2.406       .  S
Zr1171     O1174   2.463       .  S
Zr1171     O1177   2.455       .  S
Zr1171     O1179   2.377       .  S
Zr1171     O1180   2.384       .  S
Zr1171     O1181   2.398       .  S
Zr1171     O1182   2.411       .  S
O1172      H1228   0.990       .  S
O1172      H1236   0.990       .  S
O1173      C1193   1.280       .  A
O1174      C1195   1.289       .  A
O1175     Zr1185   2.380       .  S
O1175      C1194   1.277       .  A
O1176     Zr1184   2.364       .  S
O1176      C1195   1.270       .  A
O1177      C1194   1.287       .  A
O1178     Zr1186   2.410       .  S
O1178      C1193   1.279       .  A
O1179     Zr1184   2.373       .  S
O1179     Zr1186   2.377       .  S
O1180     Zr1185   2.371       .  S
O1180     Zr1186   2.363       .  S
O1180      H1215   0.965       .  S
O1181     Zr1184   2.385       .  S
O1181     Zr1201   2.394       .  S
O1181      H1218   0.966       .  S
O1182     Zr1185   2.382       .  S
O1182     Zr1201   2.395       .  S
Zr1183     O1208   2.439       .  S
Zr1183     O1202   2.435       .  S
Zr1183     O1210   2.477       .  S
Zr1183     O1198   2.499       .  S
Zr1183     O1189   2.407       .  S
Zr1183     O1190   2.401       .  S
Zr1183     O1191   2.385       .  S
Zr1183     O1192   2.395       .  S
Zr1184     O1203   2.434   1_556  S
Zr1184     O1196   2.436       .  S
Zr1184     O1197   2.344       .  S
Zr1184     O1190   2.401       .  S
Zr1184     O1191   2.377       .  S
Zr1185     O1187   2.436       .  S
Zr1185     O1209   2.437       .  S
Zr1185     O1211   2.381       .  S
Zr1185     O1189   2.388       .  S
Zr1185     O1192   2.372       .  S
Zr1186     O1212   2.435       .  S
Zr1186     O1213   2.437       .  S
Zr1186     O1188   2.438       .  S
Zr1186     O1189   2.387       .  S
Zr1186     O1190   2.378       .  S
O1187      H1224   0.990       .  S
O1188      H1219   0.990       .  S
O1188      H1233   0.990       .  S
O1190      H1216   0.965       .  S
O1191     Zr1201   2.387       .  S
O1192     Zr1201   2.368       .  S
O1192      H1217   0.965       .  S
C1193      C1241   1.444       .  S
C1194      C1245   1.459       .  S
C1195      C1329   1.451       .  S
O1196      H1232   0.990       .  S
O1197      C1199   1.266       .  A
O1198      C1199   1.296       .  A
C1199      C1289   1.449       .  S
O1200     Zr1201   2.438       .  S
O1200      H1229   0.990       .  S
Zr1201     O1204   2.438   1_556  S
Zr1201     O1205   2.437       .  S
Zr1201     O1206   2.417       .  S
O1202      C1207   1.285       .  A
O1203      H1220   0.990       .  S
O1203      H1235   0.990       .  S
O1204      H1221   0.990       .  S
O1205      H1225   0.990       .  S
O1205      H1234   0.990       .  S
O1206      C1207   1.279       .  A
C1207      C1307   1.451       .  S
O1208      H1227   0.990       .  S
O1208      H1231   0.990       .  S
O1209      H1223   0.990       .  S
O1209      H1230   0.990       .  S
O1210      C1214   1.290       .  A
O1211      C1214   1.271       .  A
O1212      H1222   0.990       .  S
O1213      H1226   0.990       .  S
C1214      C1251   1.465       .  S
C1237      C1469   1.467       .  S
C1237      N1238   1.357   1_455  A
C1237      N1242   1.358       .  A
N1238      C1239   1.352       .  A
C1239      N1240   1.347   1_655  A
N1240      C1241   1.351       .  A
C1241      N1242   1.356       .  A
C1243      C1369   1.513       .  S
C1243      N1244   1.365       .  A
C1243      N1248   1.379       .  A
N1244      C1245   1.354   1_655  A
C1245      N1246   1.351       .  A
N1246      C1247   1.340       .  A
C1247      N1248   1.378   1_455  A
C1249      C1379   1.501       .  S
C1249      N1250   1.364       .  A
C1249      N1254   1.378       .  A
N1250      C1251   1.354       .  A
C1251      N1252   1.356       .  A
N1252      C1253   1.349       .  A
C1253      N1254   1.371       .  A
C1255      C1389   1.456       .  S
C1255      N1256   1.364       .  A
C1255      N1260   1.369       .  A
N1256      C1257   1.351   1_565  A
C1257      N1258   1.353       .  A
N1258      C1259   1.351   1_545  A
C1259      N1260   1.352       .  A
C1261      C1479   1.500       .  S
C1261      N1262   1.366   1_655  A
C1261      N1266   1.360       .  A
N1262      C1263   1.364       .  A
C1263      N1264   1.354   1_455  A
N1264      C1265   1.353       .  A
C1265      N1266   1.357       .  A
C1267      C1486   1.514       .  S
C1267      N1268   1.364       .  A
C1267      N1272   1.368   1_655  A
N1268      C1269   1.364       .  A
C1269      N1270   1.346       .  A
N1270      C1271   1.347   1_655  A
C1271      N1272   1.370       .  A
C1273      C1396   1.492       .  S
C1273      N1274   1.371       .  A
C1273      N1278   1.365       .  A
N1274      C1275   1.365       .  A
C1275      N1276   1.342       .  A
N1276      C1277   1.347       .  A
C1277      N1278   1.352       .  A
C1279      C1529   1.499       .  S
C1279      N1280   1.362   1_565  A
C1279      N1284   1.364       .  A
N1280      C1281   1.360   1_545  A
C1281      N1282   1.347       .  A
N1282      C1283   1.347       .  A
C1283      N1284   1.365       .  A
C1285      C1509   1.525       .  S
C1285      N1286   1.368       .  A
C1285      N1290   1.360   1_554  A
N1286      C1287   1.372       .  A
C1287      N1288   1.349       .  A
N1288      C1289   1.347   1_554  A
C1289      N1290   1.363       .  A
C1291      C1359   1.514       .  S
C1291      N1292   1.383       .  A
C1291      N1296   1.381       .  A
N1292      C1293   1.368       .  A
C1293      N1294   1.354       .  A
N1294      C1295   1.354       .  A
C1295      N1296   1.366       .  A
C1297      C1569   1.473       .  S
C1297      N1298   1.372       .  A
C1297      N1302   1.369       .  A
N1298      C1299   1.356       .  A
C1299      N1300   1.346       .  A
N1300      C1301   1.349       .  A
C1301      N1302   1.352       .  A
C1303      C1519   1.492       .  S
C1303      N1304   1.370       .  A
C1303      N1308   1.364   1_554  A
N1304      C1305   1.368       .  A
C1305      N1306   1.345       .  A
N1306      C1307   1.346   1_554  A
C1307      N1308   1.359       .  A
C1309      C1499   1.522       .  S
C1309      N1310   1.378   1_565  A
C1309      N1314   1.366       .  A
N1310      C1311   1.380       .  A
C1311      N1312   1.352   1_545  A
N1312      C1313   1.350       .  A
C1313      N1314   1.365       .  A
C1315      C1559   1.529       .  S
C1315      N1316   1.375       .  A
C1315      N1320   1.367       .  A
N1316      C1317   1.375       .  A
C1317      N1318   1.348       .  A
N1318      C1319   1.344       .  A
C1319      N1320   1.369       .  A
C1321      C1459   1.515       .  S
C1321      N1322   1.371       .  A
C1321      N1326   1.382       .  A
N1322      C1323   1.361       .  A
C1323      N1324   1.362       .  A
N1324      C1325   1.347       .  A
C1325      N1326   1.377       .  A
C1327      C1436   1.491   1_655  S
C1327      N1328   1.355   1_654  A
C1327      N1332   1.361   1_554  A
N1328      C1329   1.359       .  A
C1329      N1330   1.351   1_455  A
N1330      C1331   1.353       .  A
C1331      N1332   1.364       .  A
C1333      C1419   1.487       .  S
C1333      N1334   1.359       .  A
C1333      N1338   1.358   1_545  A
N1334      C1335   1.360   1_545  A
C1335      N1336   1.355       .  A
N1336      C1337   1.353       .  A
C1337      N1338   1.359       .  A
C1339      C1426   1.498       .  S
C1339      N1340   1.369       .  A
C1339      N1344   1.365       .  A
N1340      C1341   1.367   1_455  A
C1341      N1342   1.345       .  A
N1342      C1343   1.360       .  A
C1343      N1344   1.360   1_655  A
C1345      C1346   1.418       .  A
C1345      C1350   1.424       .  A
C1345     Br1352   1.920       .  S
C1346      C1347   1.416       .  A
C1347      C1348   1.421       .  A
C1347     Br1354   1.934       .  S
C1348      C1349   1.421       .  A
C1348     Br1353   1.932       .  S
C1349      C1350   1.416       .  A
C1350     Br1351   1.930       .  S
C1355      C1356   1.425       .  A
C1355      C1360   1.420       .  A
C1355     Br1362   1.936       .  S
C1356      C1357   1.423       .  A
C1357      C1358   1.423       .  A
C1357     Br1364   1.932       .  S
C1358      C1359   1.417       .  A
C1358     Br1363   1.932       .  S
C1359      C1360   1.414       .  A
C1360     Br1361   1.932       .  S
C1365      C1366   1.418       .  A
C1365      C1370   1.426       .  A
C1365     Br1372   1.929       .  S
C1366      C1367   1.417       .  A
C1367      C1368   1.412       .  A
C1367     Br1374   1.937       .  S
C1368      C1369   1.418       .  A
C1368     Br1373   1.937       .  S
C1369      C1370   1.420       .  A
C1370     Br1371   1.929       .  S
C1375      C1376   1.417       .  A
C1375      C1380   1.417       .  A
C1375     Br1382   1.931       .  S
C1376      C1377   1.416       .  A
C1377      C1378   1.416       .  A
C1377     Br1384   1.933       .  S
C1378      C1379   1.417       .  A
C1378     Br1383   1.933       .  S
C1379      C1380   1.413       .  A
C1380     Br1381   1.930       .  S
C1385      C1386   1.413       .  A
C1385      C1390   1.399       .  A
C1385     Br1392   1.933       .  S
C1386      C1387   1.413       .  A
C1387      C1388   1.399       .  A
C1387     Br1394   1.933       .  S
C1388      C1389   1.405       .  A
C1388     Br1393   1.933       .  S
C1389      C1390   1.404       .  A
C1390     Br1391   1.932       .  S
C1395      C1396   1.418       .  A
C1395      C1400   1.417       .  A
C1395     Br1402   1.931       .  S
C1396      C1397   1.414       .  A
C1397      C1398   1.402       .  A
C1397     Br1404   1.937       .  S
C1398      C1399   1.411       .  A
C1398     Br1403   1.931       .  S
C1399      C1400   1.414       .  A
C1400     Br1401   1.929       .  S
C1405      C1406   1.422       .  A
C1405      C1410   1.401       .  A
C1405     Br1412   1.939       .  S
C1406      C1407   1.414       .  A
C1407      C1408   1.414       .  A
C1407     Br1414   1.928       .  S
C1408      C1409   1.410       .  A
C1408     Br1413   1.928       .  S
C1409      C1410   1.404       .  A
C1410     Br1411   1.938       .  S
C1415      C1416   1.415       .  A
C1415      C1420   1.409       .  A
C1415     Br1422   1.935       .  S
C1416      C1417   1.415       .  A
C1417      C1418   1.412       .  A
C1417     Br1424   1.932       .  S
C1418      C1419   1.414       .  A
C1418     Br1423   1.935       .  S
C1419      C1420   1.413       .  A
C1420     Br1421   1.934       .  S
C1425      C1426   1.416       .  A
C1425      C1430   1.418       .  A
C1425     Br1432   1.934       .  S
C1426      C1427   1.411       .  A
C1427      C1428   1.412       .  A
C1427     Br1434   1.933       .  S
C1428      C1429   1.420       .  A
C1428     Br1433   1.936       .  S
C1429      C1430   1.420       .  A
C1430     Br1431   1.932       .  S
C1435      C1436   1.418       .  A
C1435      C1440   1.411       .  A
C1435     Br1442   1.932       .  S
C1436      C1437   1.414   1_455  A
C1437      C1438   1.411       .  A
C1437     Br1444   1.932       .  S
C1438      C1439   1.411   1_655  A
C1438     Br1443   1.933       .  S
C1439      C1440   1.408       .  A
C1440     Br1441   1.932       .  S
C1445      C1446   1.408       .  A
C1445      C1450   1.405       .  A
C1445     Br1452   1.937       .  S
C1446      C1447   1.407       .  A
C1447      C1448   1.411       .  A
C1447     Br1454   1.932       .  S
C1448      C1449   1.421       .  A
C1448     Br1453   1.933       .  S
C1449      C1450   1.420       .  A
C1450     Br1451   1.938       .  S
C1455      C1456   1.424       .  A
C1455      C1460   1.424       .  A
C1455     Br1462   1.932       .  S
C1456      C1457   1.425       .  A
C1457      C1458   1.424       .  A
C1457     Br1464   1.932       .  S
C1458      C1459   1.412       .  A
C1458     Br1463   1.930       .  S
C1459      C1460   1.415       .  A
C1460     Br1461   1.931       .  S
C1465      C1466   1.415       .  A
C1465      C1470   1.406       .  A
C1465     Br1472   1.934       .  S
C1466      C1467   1.414       .  A
C1467      C1468   1.402       .  A
C1467     Br1474   1.935       .  S
C1468      C1469   1.408       .  A
C1468     Br1473   1.936       .  S
C1469      C1470   1.408       .  A
C1470     Br1471   1.933       .  S
C1475      C1476   1.409       .  A
C1475      C1480   1.411       .  A
C1475     Br1482   1.934       .  S
C1476      C1477   1.410   1_655  A
C1477      C1478   1.415       .  A
C1477     Br1484   1.931       .  S
C1478      C1479   1.419   1_455  A
C1478     Br1483   1.932       .  S
C1479      C1480   1.421       .  A
C1480     Br1481   1.936       .  S
C1485      C1486   1.419       .  A
C1485      C1490   1.422       .  A
C1485     Br1492   1.932   1_655  S
C1486      C1487   1.419       .  A
C1487      C1488   1.419       .  A
C1487     Br1494   1.932       .  S
C1488      C1489   1.413       .  A
C1488     Br1493   1.930       .  S
C1489      C1490   1.417       .  A
C1490     Br1491   1.931       .  S
C1495      C1496   1.436       .  A
C1495      C1500   1.424       .  A
C1495     Br1502   1.938       .  S
C1496      C1497   1.432   1_565  A
C1497      C1498   1.433       .  A
C1497     Br1504   1.930       .  S
C1498      C1499   1.413   1_545  A
C1498     Br1503   1.929       .  S
C1499      C1500   1.410       .  A
C1500     Br1501   1.934       .  S
C1505      C1506   1.417       .  A
C1505      C1510   1.419       .  A
C1505     Br1512   1.936       .  S
C1506      C1507   1.419   1_556  A
C1507      C1508   1.426       .  A
C1507     Br1514   1.932       .  S
C1508      C1509   1.424       .  A
C1508     Br1513   1.933       .  S
C1509      C1510   1.424   1_554  A
C1510     Br1511   1.937       .  S
C1515      C1516   1.428       .  A
C1515      C1520   1.414       .  A
C1515     Br1522   1.935       .  S
C1516      C1517   1.424   1_554  A
C1517      C1518   1.418       .  A
C1517     Br1524   1.928       .  S
C1518      C1519   1.408   1_556  A
C1518     Br1523   1.930       .  S
C1519      C1520   1.406       .  A
C1520     Br1521   1.933       .  S
C1525      C1526   1.421       .  A
C1525      C1530   1.416       .  A
C1525     Br1532   1.934       .  S
C1526      C1527   1.416   1_565  A
C1527      C1528   1.413       .  A
C1527     Br1534   1.933       .  S
C1528      C1529   1.416   1_545  A
C1528     Br1533   1.934       .  S
C1529      C1530   1.414       .  A
C1530     Br1531   1.934       .  S
C1535      C1536   1.411       .  A
C1535      C1540   1.400       .  A
C1535     Br1542   1.934       .  S
C1536      C1537   1.411       .  A
C1537      C1538   1.399       .  A
C1537     Br1544   1.935       .  S
C1538      C1539   1.406       .  A
C1538     Br1543   1.932   1_545  S
C1539      C1540   1.406       .  A
C1540     Br1541   1.934       .  S
C1545      C1546   1.415       .  A
C1545      C1550   1.420       .  A
C1545     Br1552   1.930       .  S
C1546      C1547   1.417       .  A
C1547      C1548   1.410       .  A
C1547     Br1554   1.935       .  S
C1548      C1549   1.414       .  A
C1548     Br1553   1.936       .  S
C1549      C1550   1.419       .  A
C1550     Br1551   1.931       .  S
C1555      C1556   1.424       .  A
C1555      C1560   1.426       .  A
C1555     Br1562   1.932       .  S
C1556      C1557   1.418       .  A
C1557      C1558   1.428       .  A
C1557     Br1564   1.929       .  S
C1558      C1559   1.422       .  A
C1558     Br1563   1.929       .  S
C1559      C1560   1.417       .  A
C1560     Br1561   1.931       .  S
C1565      C1566   1.411       .  A
C1565      C1570   1.405       .  A
C1565     Br1572   1.933       .  S
C1566      C1567   1.413       .  A
C1567      C1568   1.402       .  A
C1567     Br1574   1.937       .  S
C1568      C1569   1.412       .  A
C1568     Br1573   1.936       .  S
C1569      C1570   1.412       .  A
C1570     Br1571   1.932       .  S
C1575      C1576   1.413   1_554  A
C1575      C1580   1.423       .  A
C1575     Br1582   1.930       .  S
C1576      C1577   1.410       .  A
C1577      C1578   1.408       .  A
C1577     Br1584   1.942       .  S
C1578      C1579   1.425       .  A
C1578     Br1583   1.939       .  S
C1579      C1580   1.423   1_556  A
C1580     Br1581   1.929       .  S
