geometry optimzed in LAMMPS
_audit_creation_date              2020-11-30 
_audit_creation_method            'lammps2cif' 
_symmetry_space_group_name_H-M    'P1' 
_symmetry_Int_Tables_number       1 
_symmetry_cell_setting            triclinic 
loop_ 
_symmetry_equiv_pos_as_xyz 
  x,y,z 
_cell_length_a                    27.739502052316602 
_cell_length_b                    27.889164814367014 
_cell_length_c                    27.444330276716645 
_cell_angle_alpha                 97.20745556830914 
_cell_angle_beta                  95.9021065426945 
_cell_angle_gamma                 85.53639054247716 
loop_ 
_atom_site_label 
_atom_site_type_symbol 
_atom_site_fract_x 
_atom_site_fract_y 
_atom_site_fract_z 
_atom_site_charge 
C1          C  0.73439837  0.28084918  0.23437903     0.03420
C2          C  0.76667717  0.31687074  0.24909898    -0.12730
C3          C  0.79803103  0.31471292  0.29204332     0.00920
C4          C  0.79845340  0.27597890  0.31942742    -0.11260
C5          C  0.76538738  0.24050462  0.30530999     0.03410
C6          C  0.73348802  0.24257800  0.26263793    -0.10680
H7          H  0.76632221  0.34735826  0.22807255     0.09000
H8          H  0.82155479  0.27558374  0.35377956     0.06530
H9          H  0.70611249  0.21637597  0.25326958     0.06380
C10         C  0.20292815  0.87053457  0.20543848     0.03420
C11         C  0.16033639  0.84660511  0.19419339    -0.12730
C12         C  0.12881560  0.84645070  0.23055284     0.00920
C13         C  0.13435905  0.87892493  0.27390505    -0.11260
C14         C  0.17434116  0.90752078  0.28258013     0.03410
C15         C  0.20902032  0.90274561  0.24843015    -0.10680
H16         H  0.15716494  0.82019195  0.16162116     0.09000
H17         H  0.11056365  0.87867609  0.30279870     0.06530
H18         H  0.24280249  0.92041969  0.25759577     0.06380
C19         C  0.26567140  0.32322745  0.85818227     0.03420
C20         C  0.23988599  0.36639725  0.84867975    -0.12730
C21         C  0.21853293  0.37161359  0.80117258     0.00920
C22         C  0.22470931  0.33488041  0.76264385    -0.11260
C23         C  0.24979866  0.29129003  0.77231244     0.03410
C24         C  0.26981211  0.28530481  0.82016239    -0.10680
H25         H  0.23494327  0.39531341  0.87843253     0.09000
H26         H  0.20640190  0.33857263  0.72630424     0.06530
H27         H  0.28744533  0.25071721  0.82816241     0.06380
O28         O  0.85644002  0.08001346  0.62634724    -0.80610
O29         O  0.61750966  0.06937189  0.60218287    -0.65300
O30         O  0.75972245  0.05342507  0.59698877    -1.11900
C31         C  0.73346455  0.13378533  0.46047944     1.06280
O32         O  0.59683360  0.07074179  0.52205414    -0.78500
O33         O  0.68278677  0.02197656  0.49185232    -0.66080
Ni34       Ni  0.79856250  0.07041974  0.65734102     1.34870
C35         C  0.72814867  0.01171667  0.48934625     0.85020
O36         O  0.69255648  0.01783876  0.64870768    -0.79040
O37         O  0.74759619  0.05951693  0.69545200    -0.89320
C38         C  0.58463208  0.06921785  0.56543088     0.84590
O39         O  0.77288876  0.13527109  0.65434712    -0.67520
O40         O  0.70125019  0.10302804  0.45142536    -0.86810
C41         C  0.72819541  0.14778765  0.65886054     0.85420
C42         C  0.72283343  0.02280163  0.68650827     1.06990
H43         H  0.68114743  0.13778304  0.56357799     0.38790
O44         O  0.69124206  0.10479257  0.55180084    -1.09470
O45         O  0.75970358  0.04302153  0.50017886    -0.66120
Ni46       Ni  0.76172525  0.09762834  0.54965481     1.26350
O47         O  0.69411292  0.11861323  0.64861058    -0.66350
O48         O  0.75874932  0.14086174  0.50154803    -0.78640
C49         C  0.86754703  0.08574008  0.58361476     0.84800
O50         O  0.83382189  0.09066277  0.54827549    -0.65820
Ni51       Ni  0.65327398  0.08601501  0.49126499     1.27450
Ni52       Ni  0.68932367  0.06181229  0.60037440     1.26060
H53         H  0.76902978  0.02046536  0.58436947     0.39350
C54         C  0.64803288  0.37587538  0.83783482     0.03420
C55         C  0.64872997  0.33775746  0.79947353    -0.12730
C56         C  0.68752979  0.33012089  0.77038059     0.00920
C57         C  0.72358217  0.36296872  0.77678795    -0.11260
C58         C  0.72257250  0.40145976  0.81465373     0.03410
C59         C  0.68401285  0.40893623  0.84423158    -0.10680
H60         H  0.62206430  0.31075519  0.79580820     0.09000
H61         H  0.75434020  0.35652919  0.75488027     0.06530
H62         H  0.68422770  0.43778497  0.87464841     0.06380
O63         O  0.43348160  0.43132376  0.11655932    -0.80610
O64         O  0.43629466  0.19029183  0.08295674    -0.65300
O65         O  0.46016809  0.32874858  0.11571008    -1.11900
C66         C  0.53264435  0.31327578  0.97138789     1.06280
O67         O  0.50229001  0.16752666  0.04388168    -0.78500
O68         O  0.55897873  0.24401110  0.07738447    -0.66080
Ni69       Ni  0.40687823  0.37328310  0.13487322     1.34870
C70         C  0.57107155  0.28695716  0.09162158     0.85020
O71         O  0.42135707  0.25723755  0.16044523    -0.79040
O72         O  0.37238952  0.32408640  0.15778243    -0.89320
C73         C  0.46618952  0.15655832  0.06482591     0.84590
O74         O  0.37653491  0.35836445  0.07018873    -0.67520
O75         O  0.54927773  0.27291194  0.98564060    -0.86810
C76         C  0.36628750  0.31637779  0.04951416     0.85420
C77         C  0.38286102  0.28197332  0.17070216     1.06990
H78         H  0.44417592  0.25986434  0.01211938     0.38790
O79         O  0.46971601  0.26631717  0.03806063    -1.09470
O80         O  0.54663194  0.32461006  0.07787229    -0.66120
Ni81       Ni  0.47914654  0.33497992  0.05163934     1.26350
O82         O  0.38228679  0.27673033  0.06672614    -0.66350
O83         O  0.49629571  0.33745824  0.98775184    -0.78640
C84         C  0.46401381  0.44063904  0.08767635     0.84800
O85         O  0.48733665  0.40559647  0.06322566    -0.65820
Ni86       Ni  0.52273170  0.22393683  0.01746596     1.27450
Ni87       Ni  0.44649001  0.26043855  0.09937477     1.26060
H88         H  0.48711324  0.33199110  0.14088625     0.39350
O89         O  0.41552529  0.81369104  0.16226689    -0.80610
O90         O  0.55902132  0.84245056  0.02701638    -0.65300
O91         O  0.44151571  0.82744713  0.07776962    -1.11900
C92         C  0.48600555  0.65295764  0.06823087     1.06280
O93         O  0.57624629  0.76643195  0.99211219    -0.78500
O94         O  0.48597203  0.73140787  0.97118469    -0.66080
Ni95       Ni  0.42254691  0.87059017  0.13329104     1.34870
C96         C  0.44097559  0.73933439  0.97708925     0.85020
O97         O  0.48368104  0.90779890  0.04785853    -0.79040
O98         O  0.43119719  0.92974873  0.10519800    -0.89320
C99         C  0.58375252  0.81142684  0.00059074     0.84590
O100        O  0.48318872  0.87522714  0.17113177    -0.67520
O101        O  0.51199954  0.66220341  0.03517181    -0.86810
C102        C  0.52582939  0.86811855  0.15846057     0.85420
C103        C  0.45725431  0.94101534  0.07284592     1.06990
H104        H  0.53811647  0.76629092  0.09436535     0.38790
O105        O  0.51518214  0.76732184  0.06547986    -1.09470
O106        O  0.42388018  0.74335339  0.01896353    -0.66120
Ni107      Ni  0.45303189  0.75792730  0.08564268     1.26350
O108        O  0.53574841  0.85426190  0.11493411    -0.66350
O109        O  0.46418026  0.68811788  0.09397244    -0.78640
C110        C  0.38183369  0.78795524  0.14237748     0.84800
O111        O  0.39061623  0.75568594  0.10732598    -0.65820
Ni112      Ni  0.54036221  0.71901382  0.01644681     1.27450
Ni113      Ni  0.50021259  0.83673519  0.05365110     1.26060
H114        H  0.41612441  0.83116674  0.05138429     0.39350
O115        O  0.03371405  0.59739871  0.92046646    -0.80610
O116        O  0.01055459  0.58107095  0.67885158    -0.65300
O117        O  0.00376308  0.61214758  0.82077558    -1.11900
C118        C  0.87839721  0.51331583  0.80398313     1.06280
O119        O  0.93699449  0.55555239  0.65504832    -0.78500
O120        O  0.89783923  0.61399389  0.73328430    -0.66080
Ni121      Ni  0.06298919  0.61080801  0.86251326     1.34870
C122        C  0.89407451  0.63242612  0.77770360     0.85020
O123        O  0.05039063  0.64531992  0.74815214    -0.79040
O124        O  0.10098522  0.62631192  0.81233222    -0.89320
C125        C  0.97779551  0.56756008  0.64456230     0.84590
O126        O  0.07180464  0.54408323  0.84034075    -0.67520
O127        O  0.86827515  0.53382056  0.76503781    -0.86810
C128        C  0.07722159  0.52690815  0.79589389     0.85420
C129        C  0.09204797  0.64405210  0.77159179     1.06990
H130        H  0.98302151  0.51412000  0.74995073     0.38790
O131        O  0.96657181  0.54582277  0.75588960    -1.09470
O132        O  0.90884374  0.61060124  0.81541920    -0.66120
Ni133      Ni  0.96184014  0.56247269  0.82589053     1.26350
O134        O  0.06180914  0.54889347  0.75868612    -0.66350
O135        O  0.91978159  0.51314383  0.82773916    -0.78640
C136        C  0.99272745  0.58648642  0.93151116     0.84800
O137        O  0.95813972  0.57769607  0.89754490    -0.65820
Ni138      Ni  0.90689579  0.54639452  0.71404361     1.27450
Ni139      Ni  0.00791562  0.59612101  0.75038118     1.26060
H140        H  0.98770763  0.64369817  0.82791217     0.39350
C141        C  0.31954008  0.75145592  0.79549049     0.03420
C142        C  0.32160619  0.79035392  0.76817390    -0.12730
C143        C  0.29767077  0.78979139  0.72079853     0.00920
C144        C  0.27035221  0.75069526  0.70096857    -0.11260
C145        C  0.26382109  0.71434166  0.72986446     0.03410
C146        C  0.29123778  0.71310838  0.77567003    -0.10680
H147        H  0.34016471  0.82210970  0.78455863     0.09000
H148        H  0.24915628  0.75180880  0.66560379     0.06530
H149        H  0.28749226  0.68433083  0.79775801     0.06380
O150        O  0.34395751  0.08255166  0.52114235    -0.80610
O151        O  0.10963105  0.07994225  0.54346585    -0.65300
O152        O  0.24951028  0.10126644  0.55655705    -1.11900
C153        C  0.26402718  0.97341193  0.64759182     1.06280
O154        O  0.10543342  0.04603895  0.61184051    -0.78500
O155        O  0.18549721  0.09024649  0.65774514    -0.66080
Ni156      Ni  0.27935095  0.10802256  0.49855050     1.34870
C157        C  0.22741964  0.10668030  0.66265527     0.85020
O158        O  0.16285277  0.14830244  0.52008455    -0.79040
O159        O  0.22114021  0.13789875  0.46860299    -0.89320
C160        C  0.08435988  0.06557175  0.57495064     0.84590
O161        O  0.26106142  0.04581389  0.46975120    -0.67520
O162        O  0.23255359  0.00263760  0.66757647    -0.86810
C163        C  0.21725665  0.03485038  0.45935409     0.85420
C164        C  0.18079655  0.15714236  0.48186891     1.06990
H165        H  0.19531196  0.00323061  0.55303456     0.38790
O166        O  0.20086480  0.03156733  0.57649530    -1.09470
O167        O  0.26488392  0.08099711  0.64885784    -0.66120
Ni168      Ni  0.27032916  0.04351287  0.58537689     1.26350
O169        O  0.18222630  0.05367792  0.48371081    -0.66350
O170        O  0.28617965  0.98447645  0.61290057    -0.78640
C171        C  0.36582383  0.06978597  0.56105604     0.84800
O172        O  0.34085692  0.05612931  0.59332567    -0.65820
Ni173      Ni  0.17166508  0.02540080  0.63597377     1.27450
Ni174      Ni  0.18014598  0.09006333  0.54858696     1.26060
H175        H  0.25518380  0.12998775  0.57938669     0.39350
C176        C  0.74981897  0.85089794  0.35747631     0.03420
C177        C  0.71085851  0.86711504  0.32623808    -0.12730
C178        C  0.69613405  0.83830572  0.28310670     0.00920
C179        C  0.72200820  0.79471370  0.26905508    -0.11260
C180        C  0.76148125  0.77922316  0.30021187     0.03410
C181        C  0.77482653  0.80677794  0.34509054    -0.10680
H182        H  0.69045900  0.90099320  0.33675608     0.09000
H183        H  0.71117538  0.77283094  0.23475167     0.06530
H184        H  0.80553592  0.79477401  0.36936775     0.06380
C185        C  0.15829345  0.23656843  0.30840480     0.03420
C186        C  0.19974837  0.22177075  0.28377695    -0.12730
C187        C  0.21054235  0.24659572  0.24529162     0.00920
C188        C  0.18040004  0.28696406  0.23306299    -0.11260
C189        C  0.13921104  0.30124875  0.25787443     0.03410
C190        C  0.12650353  0.27386945  0.29312643    -0.10680
H191        H  0.22528409  0.19381498  0.29706854     0.09000
H192        H  0.19134072  0.30974150  0.20744212     0.06530
H193        H  0.09578235  0.28630402  0.31397858     0.06380
O194        O  0.95002110  0.53762197  0.15155064    -0.80610
O195        O  0.98192653  0.54185317  0.39360094    -0.65300
O196        O  0.94721718  0.56033595  0.25495470    -1.11900
C197        C  0.05357860  0.67787761  0.27865814     1.06280
O198        O  0.99638445  0.61825587  0.42044623    -0.78500
O199        O  0.94700414  0.65901776  0.34174725    -0.66080
Ni200      Ni  0.94118858  0.50440396  0.20792080     1.34870
C201        C  0.93182032  0.66492676  0.29732991     0.85020
O202        O  0.91300838  0.51050384  0.32408807    -0.79040
O203        O  0.92857585  0.46275349  0.25568476    -0.89320
C204        C  0.98876176  0.57588276  0.42929764     0.84590
O205        O  0.00876491  0.49294725  0.22208834    -0.67520
O206        O  0.03298791  0.68673965  0.31838626    -0.86810
C207        C  0.02782398  0.48050208  0.26317371     0.85420
C208        C  0.91033647  0.47082039  0.29677586     1.06990
H209        H  0.04757354  0.57351571  0.32606220     0.38790
O210        O  0.01614693  0.59037895  0.32053516    -1.09470
O211        O  0.95791576  0.65357981  0.26165692    -0.66120
Ni212      Ni  0.00206428  0.59746734  0.25128238     1.26350
O213        O  0.00977468  0.49502944  0.30430681    -0.66350
O214        O  0.05459518  0.63683242  0.25292491    -0.78640
C215        C  0.97098639  0.57470099  0.14409999     0.84800
O216        O  0.99094235  0.60245535  0.18007533    -0.65820
Ni217      Ni  0.01339988  0.64854405  0.36523715     1.27450
Ni218      Ni  0.96488251  0.55008821  0.32333970     1.26060
H219        H  0.91658832  0.57919567  0.25222987     0.39350
C220        C  0.74091423  0.85572128  0.90057188     0.03420
C221        C  0.73861789  0.89402249  0.87158010    -0.12730
C222        C  0.75911651  0.88723784  0.82672531     0.00920
C223        C  0.78595116  0.84440366  0.81289205    -0.11260
C224        C  0.79046550  0.80737323  0.84278258     0.03410
C225        C  0.76884803  0.81298880  0.88700981    -0.10680
H226        H  0.71637783  0.92694118  0.88104143     0.09000
H227        H  0.80112247  0.83880938  0.77755298     0.06530
H228        H  0.76961978  0.78227946  0.90775121     0.06380
C229        C  0.11590538  0.38047542  0.30139372    -0.11980
C230        C  0.11625210  0.35020349  0.25646631     0.05020
C231        C  0.09621839  0.36772896  0.21238322    -0.07270
C232        C  0.07264852  0.41396489  0.21521473    -0.08010
C233        C  0.06730087  0.44205830  0.26107848    -0.02570
C234        C  0.09216257  0.42642669  0.30425560     0.04250
N235        N  0.09303065  0.45606986  0.35108870     0.66760
H236        H  0.13390011  0.36794760  0.33481635     0.15660
H237        H  0.05445837  0.42586419  0.18155420     0.15370
N238        N  0.09637484  0.33838860  0.16529285     0.74460
O239        O  0.09246074  0.43691910  0.39033385    -0.38990
O240        O  0.10134185  0.50023339  0.35398583    -0.38930
O241        O  0.09029059  0.29363761  0.16159915    -0.39640
O242        O  0.09721069  0.35810204  0.12642996    -0.39700
C243        C  0.84696506  0.67402067  0.31588380    -0.11980
C244        C  0.88237551  0.68520979  0.28692066     0.05020
C245        C  0.87049465  0.71797788  0.25158386    -0.07270
C246        C  0.82557534  0.74393871  0.25114244    -0.08010
C247        C  0.79297629  0.73729019  0.28492539    -0.02570
C248        C  0.80170049  0.69957939  0.31498375     0.04250
N249        N  0.76666146  0.68993445  0.34730503     0.66760
H250        H  0.85559025  0.64683959  0.34097013     0.15660
H251        H  0.81828072  0.77304910  0.22810923     0.15370
N252        N  0.90509555  0.72931916  0.22004153     0.74460
O253        O  0.77940229  0.66598608  0.38313672    -0.38990
O254        O  0.72220945  0.70242092  0.33830029    -0.38930
O255        O  0.91778938  0.69811402  0.18552484    -0.39640
O256        O  0.91472383  0.77280321  0.21991596    -0.39700
C257        C  0.12215791  0.19012027  0.36431324    -0.11980
C258        C  0.15505667  0.22371523  0.35775829     0.05020
C259        C  0.18435196  0.24537679  0.39851293    -0.07270
C260        C  0.18287248  0.22927574  0.44432211    -0.08010
C261        C  0.15584362  0.19019018  0.44928199    -0.02570
C262        C  0.12237310  0.17233787  0.40993578     0.04250
N263        N  0.09151751  0.13406973  0.41445850     0.66760
H264        H  0.09846772  0.17572584  0.33289510     0.15660
H265        H  0.20819415  0.24268879  0.47485990     0.15370
N266        N  0.21848489  0.28054326  0.39350143     0.74460
O267        O  0.06796264  0.11349214  0.37679157    -0.38990
O268        O  0.08354518  0.12407371  0.45633792    -0.38930
O269        O  0.20827918  0.31215849  0.36431215    -0.39640
O270        O  0.25782332  0.28232074  0.42106352    -0.39700
C271        C  0.24400513  0.85346898  0.68676901    -0.11980
C272        C  0.29171538  0.83458160  0.69724942     0.05020
C273        C  0.33134832  0.86142350  0.69056153    -0.07270
C274        C  0.32170866  0.90715197  0.67403487    -0.08010
C275        C  0.27383204  0.92611839  0.66502696    -0.02570
C276        C  0.23474077  0.89882189  0.67099481     0.04250
N277        N  0.18532950  0.91618353  0.66005379     0.66760
H278        H  0.21343528  0.83363369  0.69269659     0.15660
H279        H  0.35149626  0.92817996  0.66844250     0.15370
N280        N  0.38094487  0.84297331  0.70002788     0.74460
O281        O  0.16028909  0.89582656  0.62337028    -0.38990
O282        O  0.16431849  0.94451718  0.69201229    -0.38930
O283        O  0.39231313  0.79810327  0.69280448    -0.39640
O284        O  0.41425200  0.87180776  0.71192108    -0.39700
C285        C  0.17520474  0.62737815  0.74929271    -0.11980
C286        C  0.13312549  0.65875023  0.74927584     0.05020
C287        C  0.13191124  0.70265806  0.72882419    -0.07270
C288        C  0.17494066  0.71671330  0.71427229    -0.08010
C289        C  0.21889042  0.68830617  0.72090467    -0.02570
C290        C  0.21813571  0.64116580  0.73421647     0.04250
N291        N  0.26111019  0.60855402  0.73534995     0.66760
H292        H  0.17482617  0.59244066  0.76253940     0.15660
H293        H  0.17504124  0.75294130  0.70397947     0.15370
N294        N  0.08931499  0.73554047  0.72727344     0.74460
O295        O  0.26426773  0.57305875  0.76016956    -0.38990
O296        O  0.29487992  0.61328043  0.70912543    -0.38930
O297        O  0.06480247  0.74435432  0.76404193    -0.39640
O298        O  0.08015403  0.76097512  0.69207961    -0.39700
C299        C  0.81739434  0.68085629  0.78173588    -0.11980
C300        C  0.86806989  0.67927470  0.78667020     0.05020
C301        C  0.89266073  0.72020050  0.80764236    -0.07270
C302        C  0.86593258  0.76066437  0.82803512    -0.08010
C303        C  0.81528432  0.76170105  0.82523968    -0.02570
C304        C  0.79003491  0.72219206  0.80007219     0.04250
N305        N  0.73766379  0.72330685  0.79160350     0.66760
H306        H  0.79923127  0.64904618  0.76480343     0.15660
H307        H  0.88449858  0.79241506  0.84450643     0.15370
N308        N  0.94398728  0.72211777  0.80588011     0.74460
O309        O  0.71772378  0.69478999  0.75736974    -0.38990
O310        O  0.71086175  0.75083179  0.81905659    -0.38930
O311        O  0.96318480  0.70519445  0.76705254    -0.39640
O312        O  0.96878502  0.74680952  0.83978906    -0.39700
C313        C  0.94004693  0.58755991  0.00400338    -0.11980
C314        C  0.98649685  0.58410065  0.98635462     0.05020
C315        C  0.02712510  0.57924564  0.02231703    -0.07270
C316        C  0.02053616  0.58044877  0.07314914    -0.08010
C317        C  0.97438009  0.58338110  0.09067196    -0.02570
C318        C  0.93335248  0.58687055  0.05501383     0.04250
N319        N  0.88465675  0.59074007  0.06974842     0.66760
H320        H  0.90845396  0.59138725  0.97778035     0.15660
H321        H  0.05221537  0.57554733  0.09908650     0.15370
N322        N  0.07550587  0.56916774  0.00781509     0.74460
O323        O  0.84934817  0.57960401  0.03861217    -0.38990
O324        O  0.87604747  0.60907916  0.11267343    -0.38930
O325        O  0.11059237  0.58910674  0.03335415    -0.39640
O326        O  0.08432947  0.53377069  0.97581370    -0.39700
C327        C  0.96062236  0.53351955  0.55380459    -0.11980
C328        C  0.98579252  0.56596733  0.58977402     0.05020
C329        C  0.01392685  0.59904465  0.57167311    -0.07270
C330        C  0.01441181  0.60027176  0.52009990    -0.08010
C331        C  0.98847170  0.56866957  0.48394699    -0.02570
C332        C  0.96160171  0.53425154  0.50192519     0.04250
N333        N  0.93286743  0.50143521  0.46865466     0.66760
H334        H  0.93846025  0.50795810  0.56617705     0.15660
H335        H  0.03572127  0.62682530  0.50817943     0.15370
N336        N  0.04075146  0.63339690  0.60485317     0.74460
O337        O  0.93069690  0.45842816  0.47775321    -0.38990
O338        O  0.90356636  0.51723132  0.43514227    -0.38930
O339        O  0.07668000  0.61875718  0.63245262    -0.39640
O340        O  0.03495817  0.67782890  0.59945905    -0.39700
C341        C  0.65199895  0.88086396  0.21792197    -0.11980
C342        C  0.65082514  0.85178143  0.25564073     0.05020
C343        C  0.60686617  0.83470192  0.26594247    -0.07270
C344        C  0.56481857  0.84551057  0.23602803    -0.08010
C345        C  0.56637222  0.87184481  0.19617309    -0.02570
C346        C  0.60986291  0.89136738  0.18768764     0.04250
N347        N  0.61184996  0.92070132  0.14832357     0.66760
H348        H  0.68610171  0.89443319  0.21153789     0.15660
H349        H  0.53126712  0.83042130  0.24175824     0.15370
N350        N  0.60472319  0.80417818  0.30428343     0.74460
O351        O  0.65141053  0.92351903  0.13014964    -0.38990
O352        O  0.57525708  0.94720302  0.13450930    -0.38930
O353        O  0.63079604  0.81096594  0.34469908    -0.39640
O354        O  0.57369850  0.77268444  0.29939931    -0.39700
C355        C  0.67136731  0.81937640  0.99984000    -0.11980
C356        C  0.62390740  0.82859777  0.97870503     0.05020
C357        C  0.61571779  0.85315945  0.93659556    -0.07270
C358        C  0.65518147  0.86507464  0.91455799    -0.08010
C359        C  0.70291836  0.85398332  0.93382862    -0.02570
C360        C  0.71138903  0.83268577  0.97834736     0.04250
N361        N  0.75974988  0.82437811  0.00171825     0.66760
H362        H  0.67703958  0.80179711  0.03320199     0.15660
H363        H  0.64816272  0.88131747  0.88053007     0.15370
N364        N  0.56783988  0.86567748  0.91517386     0.74460
O365        O  0.76833468  0.79342378  0.03189188    -0.38990
O366        O  0.79304928  0.85096063  0.99592881    -0.38930
O367        O  0.53747452  0.88797420  0.94229978    -0.39640
O368        O  0.55946680  0.86468177  0.86895089    -0.39700
C369        C  0.39454920  0.76634953  0.84917060    -0.11980
C370        C  0.34717874  0.75136627  0.84453698     0.05020
C371        C  0.32853105  0.73601213  0.88596750    -0.07270
C372        C  0.35977783  0.73167300  0.92912228    -0.08010
C373        C  0.40758786  0.74568151  0.93272527    -0.02570
C374        C  0.42371553  0.76616289  0.89336592     0.04250
N375        N  0.46786937  0.79056370  0.89926920     0.66760
H376        H  0.40880522  0.77952777  0.81840020     0.15660
H377        H  0.34651994  0.71824205  0.96029261     0.15370
N378        N  0.27814655  0.72687186  0.88577634     0.74460
O379        O  0.49329310  0.78946866  0.86350879    -0.38990
O380        O  0.47687036  0.81978619  0.93749472    -0.38930
O381        O  0.26588562  0.69599203  0.91131386    -0.39640
O382        O  0.24548341  0.75395129  0.86555553    -0.39700
C383        C  0.30415725  0.24806268  0.15715867    -0.11980
C384        C  0.34465645  0.25913277  0.19045457     0.05020
C385        C  0.34408610  0.25390131  0.24095185    -0.07270
C386        C  0.30016660  0.24324890  0.25732831    -0.08010
C387        C  0.25788789  0.23821902  0.22464647    -0.02570
C388        C  0.26065766  0.23725688  0.17347932     0.04250
N389        N  0.21900773  0.22837837  0.13834628     0.66760
H390        H  0.30586079  0.25024683  0.11821998     0.15660
H391        H  0.29767216  0.24373307  0.29652824     0.15370
N392        N  0.38584276  0.26176804  0.27635131     0.74460
O393        O  0.21609519  0.24380356  0.09672853    -0.38990
O394        O  0.18655241  0.20226345  0.14732632    -0.38930
O395        O  0.42135348  0.28339543  0.26661334    -0.39640
O396        O  0.38726820  0.24712106  0.31822454    -0.39700
C397        C  0.43238850  0.03107830  0.10022143    -0.11980
C398        C  0.45686952  0.99613813  0.06726100     0.05020
C399        C  0.48182464  0.01575888  0.03244410    -0.07270
C400        C  0.48430429  0.06689222  0.03328813    -0.08010
C401        C  0.46068783  0.10175506  0.06673395    -0.02570
C402        C  0.43370941  0.08243922  0.10035844     0.04250
N403        N  0.40868571  0.11393183  0.13637513     0.66760
H404        H  0.41259699  0.01845745  0.12761990     0.15660
H405        H  0.50397137  0.07952513  0.00578034     0.15370
N406        N  0.50157287  0.98467498  0.99304339     0.74460
O407        O  0.36689686  0.10476451  0.14551349    -0.38990
O408        O  0.43107783  0.14590421  0.16453667    -0.38930
O409        O  0.47292896  0.96089415  0.96215227    -0.39640
O410        O  0.54384324  0.99003540  0.98227842    -0.39700
C411        C  0.45800651  0.53228264  0.11963700    -0.11980
C412        C  0.47141435  0.49474243  0.08256833     0.05020
C413        C  0.49000061  0.51063768  0.04107905    -0.07270
C414        C  0.49502215  0.56109597  0.03846310    -0.08010
C415        C  0.48133486  0.59873060  0.07537008    -0.02570
C416        C  0.46321454  0.58279203  0.11711168     0.04250
N417        N  0.45162823  0.61687015  0.15861302     0.66760
H418        H  0.44418513  0.52215427  0.15213298     0.15660
H419        H  0.50853840  0.57106794  0.00573915     0.15370
N420        N  0.50168457  0.47657511  0.99958321     0.74460
O421        O  0.41538749  0.61151330  0.18124398    -0.38990
O422        O  0.48210602  0.64664408  0.17802146    -0.38930
O423        O  0.47054645  0.44806195  0.97888780    -0.39640
O424        O  0.53911801  0.48080471  0.97831169    -0.39700
C425        C  0.75461600  0.48156748  0.82336053    -0.11980
C426        C  0.76372622  0.43178480  0.82512382     0.05020
C427        C  0.81197480  0.41126926  0.83102635    -0.07270
C428        C  0.84995993  0.44052381  0.82872409    -0.08010
C429        C  0.84031762  0.48907416  0.82136757    -0.02570
C430        C  0.79276449  0.51087301  0.82205642     0.04250
N431        N  0.78294773  0.56212780  0.82062604     0.66760
H432        H  0.71753335  0.49712785  0.82061559     0.15660
H433        H  0.88695739  0.42472096  0.82951021     0.15370
N434        N  0.82276459  0.36091005  0.83729825     0.74460
O435        O  0.74234709  0.57852089  0.80216989    -0.38990
O436        O  0.81227047  0.59143628  0.84348331    -0.38930
O437        O  0.86120030  0.33889179  0.82285989    -0.39640
O438        O  0.79656390  0.33954879  0.86152692    -0.39700
C439        C  0.56698117  0.36614095  0.86152823    -0.11980
C440        C  0.61599109  0.37321652  0.87635837     0.05020
C441        C  0.63537669  0.36599763  0.92480094    -0.07270
C442        C  0.60647592  0.34742226  0.95544157    -0.08010
C443        C  0.55938655  0.33519444  0.93835875    -0.02570
C444        C  0.53851296  0.34608109  0.89173916     0.04250
N445        N  0.49060335  0.33281504  0.87280251     0.66760
H446        H  0.55242954  0.37159050  0.82428125     0.15660
H447        H  0.62162531  0.34031885  0.99208407     0.15370
N448        N  0.68509085  0.37324541  0.94221449     0.74460
O449        O  0.46627005  0.35614848  0.84099618    -0.38990
O450        O  0.47580128  0.29347130  0.88170129    -0.38930
O451        O  0.69497407  0.39792184  0.98333551    -0.39640
O452        O  0.71855459  0.34714766  0.92228298    -0.39700
C453        C  0.70356755  0.28229071  0.69090690    -0.11980
C454        C  0.69567278  0.28333337  0.74069295     0.05020
C455        C  0.69796393  0.23976148  0.76241857    -0.07270
C456        C  0.70703162  0.19614165  0.73346245    -0.08010
C457        C  0.71633072  0.19515674  0.68435872    -0.02570
C458        C  0.71462476  0.23837991  0.66220215     0.04250
N459        N  0.72334519  0.23854600  0.61134982     0.66760
H460        H  0.70212551  0.31599362  0.67482637     0.15660
H461        H  0.70919917  0.16262340  0.75006739     0.15370
N462        N  0.69415359  0.23919804  0.81418846     0.74460
O463        O  0.70465365  0.27241779  0.58760557    -0.38990
O464        O  0.75297736  0.20756925  0.59117999    -0.38930
O465        O  0.67212540  0.20641140  0.82862742    -0.39640
O466        O  0.71929146  0.26620188  0.84560158    -0.39700
C467        C  0.69221084  0.96509996  0.73530112    -0.11980
C468        C  0.73143986  0.98595831  0.71999403     0.05020
C469        C  0.77951450  0.97290066  0.73836757    -0.07270
C470        C  0.78707942  0.94218539  0.77489321    -0.08010
C471        C  0.74803298  0.92192589  0.79099806    -0.02570
C472        C  0.70007828  0.93190819  0.76997477     0.04250
N473        N  0.65978515  0.90724908  0.78156309     0.66760
H474        H  0.65562597  0.97424740  0.71976148     0.15660
H475        H  0.82384404  0.93241219  0.78955370     0.15370
N476        N  0.82089076  0.98821270  0.71829041     0.74460
O477        O  0.61791138  0.92855333  0.78129144    -0.38990
O478        O  0.66433966  0.86231963  0.78475720    -0.38930
O479        O  0.85902198  0.99754331  0.74604310    -0.39640
O480        O  0.82232578  0.98445466  0.67212622    -0.39700
C481        C  0.72978497  0.88042821  0.43993737    -0.11980
C482        C  0.76176168  0.88060499  0.40368534     0.05020
C483        C  0.79127926  0.91954381  0.40431255    -0.07270
C484        C  0.78274034  0.96075895  0.43731238    -0.08010
C485        C  0.74509799  0.96355573  0.46825565    -0.02570
C486        C  0.72091753  0.92191661  0.47267378     0.04250
N487        N  0.68615892  0.92195218  0.50821647     0.66760
H488        H  0.70806613  0.84961859  0.43920673     0.15660
H489        H  0.80252098  0.99240388  0.43549364     0.15370
N490        N  0.82570636  0.91985030  0.36836708     0.74460
O491        O  0.65203698  0.89371375  0.49995859    -0.38990
O492        O  0.69242000  0.94625956  0.55012617    -0.38930
O493        O  0.84643118  0.88079804  0.35009884    -0.39640
O494        O  0.83842855  0.95942767  0.35754604    -0.39700
C495        C  0.94318450  0.06596609  0.53340924    -0.11980
C496        C  0.92252061  0.08618166  0.57724219     0.05020
C497        C  0.95621353  0.10242983  0.61771640    -0.07270
C498        C  0.00726944  0.09487814  0.61479524    -0.08010
C499        C  0.02828176  0.07344999  0.57191610    -0.02570
C500        C  0.99496085  0.05943576  0.53001388     0.04250
N501        N  0.01231256  0.03639421  0.48453037     0.66760
H502        H  0.91876068  0.05295641  0.50202568     0.15660
H503        H  0.03135858  0.10719346  0.64677826     0.15370
N504        N  0.93935540  0.12837582  0.66209576     0.74460
O505        O  0.98559130  0.03713230  0.44446659    -0.38990
O506        O  0.05246559  0.01177094  0.48447768    -0.38930
O507        O  0.96241806  0.12323307  0.70343469    -0.39640
O508        O  0.90568376  0.16140699  0.65952152    -0.39700
C509        C  0.45344951  0.04601527  0.60106164    -0.11980
C510        C  0.42225302  0.07174160  0.56741430     0.05020
C511        C  0.44631612  0.09854057  0.53707084    -0.07270
C512        C  0.49775111  0.09610043  0.53822262    -0.08010
C513        C  0.52922254  0.06961841  0.57039593    -0.02570
C514        C  0.50590666  0.04463857  0.60313611     0.04250
N515        N  0.53414887  0.01606958  0.63732113     0.66760
H516        H  0.43692293  0.02533606  0.62499077     0.15660
H517        H  0.51358377  0.11688806  0.51383674     0.15370
N518        N  0.41928000  0.13052131  0.50559229     0.74460
O519        O  0.51801180  0.01039674  0.67744875    -0.38990
O520        O  0.57259525  0.99219510  0.62547527    -0.38930
O521        O  0.39119238  0.16433743  0.52382981    -0.39640
O522        O  0.42962045  0.13035847  0.46182822    -0.39700
C523        C  0.26320272  0.32716088  0.94887817    -0.11980
C524        C  0.28973099  0.31834341  0.90744096     0.05020
C525        C  0.33977511  0.30659744  0.91319495    -0.07270
C526        C  0.36302334  0.30551202  0.96012647    -0.08010
C527        C  0.33717817  0.31387359  0.00197464    -0.02570
C528        C  0.28623820  0.32496487  0.99678877     0.04250
N529        N  0.25757877  0.33462630  0.03856455     0.66760
H530        H  0.22446605  0.33612799  0.94356271     0.15660
H531        H  0.40205610  0.30115791  0.96333449     0.15370
N532        N  0.36783234  0.29748261  0.87166490     0.74460
O533        O  0.27718301  0.33838653  0.08232379    -0.38990
O534        O  0.21184063  0.33988954  0.03178926    -0.38930
O535        O  0.36861649  0.32931709  0.84291932    -0.39640
O536        O  0.38759184  0.25571643  0.86084345    -0.39700
C537        C  0.14589866  0.48122889  0.75971152    -0.11980
C538        C  0.10654783  0.48192207  0.78806257     0.05020
C539        C  0.10190920  0.44404858  0.81630697    -0.07270
C540        C  0.13963873  0.40851455  0.81933396    -0.08010
C541        C  0.18106743  0.41007600  0.79459564    -0.02570
C542        C  0.18413882  0.44578767  0.76312122     0.04250
N543        N  0.22620956  0.44833853  0.73693662     0.66760
H544        H  0.14877286  0.51072701  0.73819647     0.15660
H545        H  0.13693741  0.37927302  0.84130370     0.15370
N546        N  0.05967006  0.44154580  0.84219030     0.74460
O547        O  0.22268598  0.47027078  0.69903730    -0.38990
O548        O  0.26779417  0.43302130  0.75395726    -0.38930
O549        O  0.01842225  0.45749361  0.82493193    -0.39640
O550        O  0.06251961  0.41887966  0.87954280    -0.39700
C551        C  0.19992085  0.23562622  0.71715863    -0.11980
C552        C  0.24651498  0.24879847  0.73560960     0.05020
C553        C  0.28752931  0.21747460  0.72536325    -0.07270
C554        C  0.28024098  0.17120622  0.70095851    -0.08010
C555        C  0.23318680  0.15669140  0.68520734    -0.02570
C556        C  0.19278131  0.19045119  0.69095617     0.04250
N557        N  0.14454562  0.18001243  0.67021094     0.66760
H558        H  0.16853237  0.26016481  0.72448626     0.15660
H559        H  0.31153848  0.14632186  0.69457102     0.15370
N560        N  0.33619278  0.23203784  0.73962282     0.74460
O561        O  0.10909898  0.19089799  0.69579877    -0.38990
O562        O  0.13633402  0.16877425  0.62426631    -0.38930
O563        O  0.37091393  0.20063382  0.74566952    -0.39640
O564        O  0.34552646  0.27581409  0.74104737    -0.39700
C565        C  0.19002753  0.98756510  0.32609436    -0.11980
C566        C  0.18344957  0.93888178  0.32925587     0.05020
C567        C  0.18794476  0.92135698  0.37595450    -0.07270
C568        C  0.19790580  0.95393417  0.41844861    -0.08010
C569        C  0.20593519  0.00216987  0.41469827    -0.02570
C570        C  0.20219105  0.01924447  0.36815390     0.04250
N571        N  0.21090691  0.06832669  0.36277636     0.66760
H572        H  0.18703582  0.00067777  0.29026967     0.15660
H573        H  0.20140468  0.94129159  0.45450051     0.15370
N574        N  0.18504462  0.87087528  0.38087623     0.74460
O575        O  0.18410310  0.09069954  0.33184589    -0.38990
O576        O  0.25038849  0.08560158  0.38106854    -0.38930
O577        O  0.20378140  0.83853127  0.35078631    -0.39640
O578        O  0.16991845  0.85861310  0.41907484    -0.39700
C579        C  0.26062927  0.80090956  0.19118643    -0.11980
C580        C  0.24594876  0.84883016  0.18270890     0.05020
C581        C  0.27490836  0.87529852  0.15813656    -0.07270
C582        C  0.31799275  0.85244696  0.14216712    -0.08010
C583        C  0.33254490  0.80466090  0.15099753    -0.02570
C584        C  0.30345162  0.77798410  0.17503255     0.04250
N585        N  0.31805331  0.72946358  0.18616699     0.66760
H586        H  0.23950600  0.78187528  0.21248839     0.15660
H587        H  0.34109260  0.87247371  0.12370480     0.15370
N588        N  0.26229898  0.92517330  0.15075423     0.74460
O589        O  0.30397405  0.71421082  0.22340392    -0.38990
O590        O  0.34097396  0.70013391  0.15654823    -0.38930
O591        O  0.29505716  0.95293590  0.14637033    -0.39640
O592        O  0.21845856  0.94125843  0.14622712    -0.39700
C593        C  0.13097631  0.75779855  0.22494022    -0.11980
C594        C  0.10327636  0.80236822  0.23120805     0.05020
C595        C  0.05684333  0.80412818  0.24795526    -0.07270
C596        C  0.04144035  0.76203587  0.26236194    -0.08010
C597        C  0.07120735  0.71881256  0.25992703    -0.02570
C598        C  0.11600913  0.71605134  0.24000407     0.04250
N599        N  0.14842191  0.67301971  0.23877190     0.66760
H600        H  0.16672312  0.75611007  0.21254035     0.15660
H601        H  0.00606143  0.76293874  0.27606521     0.15370
N602        N  0.02566926  0.84801743  0.25113937     0.74460
O603        O  0.17693502  0.66369559  0.20530092    -0.38990
O604        O  0.15365530  0.64814270  0.27458978    -0.38930
O605        O  0.02896181  0.87972902  0.22281792    -0.39640
O606        O  0.99209644  0.85358711  0.27952589    -0.39700
C607        C  0.87843601  0.34603636  0.30738034    -0.11980
C608        C  0.82838067  0.35472927  0.30927552     0.05020
C609        C  0.80754553  0.40233863  0.31957209    -0.07270
C610        C  0.83702082  0.44091994  0.32082249    -0.08010
C611        C  0.88594957  0.43208775  0.31253562    -0.02570
C612        C  0.90788242  0.38459994  0.30950402     0.04250
N613        N  0.95937223  0.37535143  0.30707423     0.66760
H614        H  0.89400602  0.30915598  0.30122197     0.15660
H615        H  0.82112748  0.47779621  0.32450674     0.15370
N616        N  0.75657865  0.41179659  0.32601327     0.74460
O617        O  0.98838825  0.40330751  0.33262463    -0.38750
O618        O  0.97617522  0.33622699  0.28476506    -0.38930
O619        O  0.73357864  0.38147510  0.34331720    -0.39640
O620        O  0.73529578  0.45224386  0.31841293    -0.39700
C621        C  0.72570290  0.23112514  0.37757031    -0.11980
C622        C  0.75593162  0.20988405  0.34189101     0.05020
C623        C  0.77950562  0.16355832  0.34530105    -0.07270
C624        C  0.77171800  0.13955658  0.38539195    -0.08010
C625        C  0.74165097  0.16114105  0.42111826    -0.02570
C626        C  0.71799305  0.20733820  0.41747283     0.04250
N627        N  0.68666167  0.23073922  0.45355505     0.66760
H628        H  0.70833317  0.26693838  0.37428135     0.15660
H629        H  0.78889429  0.10371880  0.38885629     0.15370
N630        N  0.81141625  0.14086752  0.30950056     0.74460
O631        O  0.67979255  0.27631933  0.45915682    -0.38990
O632        O  0.66273997  0.20632586  0.47717414    -0.38930
O633        O  0.80801151  0.15287289  0.26637415    -0.39640
O634        O  0.84138779  0.10637432  0.31997694    -0.39700
C635        C  0.66290165  0.32565318  0.19777766    -0.11980
C636        C  0.69756255  0.28637876  0.19307848     0.05020
C637        C  0.69378180  0.25104856  0.15169858    -0.07270
C638        C  0.65301162  0.25416073  0.11764182    -0.08010
C639        C  0.61651067  0.29174354  0.12380016    -0.02570
C640        C  0.62253291  0.32906979  0.16321231     0.04250
N641        N  0.58693243  0.36874021  0.17056445     0.66760
H642        H  0.66638106  0.35290163  0.22957414     0.15660
H643        H  0.64921251  0.22641118  0.08635332     0.15370
N644        N  0.73029914  0.21181458  0.14413318     0.74460
O645        O  0.57041988  0.37894181  0.21206373    -0.38990
O646        O  0.57994542  0.39921737  0.13981936    -0.38930
O647        O  0.71940574  0.17257183  0.11863064    -0.39640
O648        O  0.77432991  0.21765110  0.15884280    -0.39700
loop_ 
_geom_bond_atom_site_label_1 
_geom_bond_atom_site_label_2 
_geom_bond_distance 
_geom_bond_site_symmetry_2 
_ccdc_geom_bond_type 
C1            C2   1.392       .  A
C1            C6   1.399       .  A
C1          C636   1.461       .  S
C2            C3   1.396       .  A
C2            H7   1.085       .  S
C3            C4   1.390       .  A
C3          C608   1.453       .  S
C4            C5   1.394       .  A
C4            H8   1.085       .  S
C5            C6   1.398       .  A
C5          C622   1.453       .  S
C6            H9   1.084       .  S
C10          C11   1.390       .  A
C10          C15   1.394       .  A
C10         C580   1.458       .  S
C11          C12   1.393       .  A
C11          H16   1.085       .  S
C12          C13   1.405       .  A
C12         C594   1.469       .  S
C13          C14   1.399       .  A
C13          H17   1.084       .  S
C14          C15   1.398       .  A
C14         C566   1.468       .  S
C15          H18   1.085       .  S
C19          C20   1.391       .  A
C19          C24   1.396       .  A
C19         C524   1.462       .  S
C20          C21   1.395       .  A
C20          H25   1.085       .  S
C21          C22   1.391       .  A
C21         C541   1.449       .  S
C22          C23   1.394       .  A
C22          H26   1.085       .  S
C23          C24   1.397       .  A
C23         C552   1.458       .  S
C24          H27   1.084       .  S
O28         Ni34   1.944       .  S
O28          C49   1.275       .  A
O29         Ni52   1.992       .  S
O29          C38   1.288       .  A
O30         Ni34   1.909       .  S
O30         Ni52   1.959       .  S
O30         Ni46   1.907       .  S
O30          H53   0.966       .  S
C31         C625   1.444       .  S
C31          O48   1.267       .  A
C31          O40   1.271       .  A
O32         Ni51   1.953       .  S
O32          C38   1.277       .  A
O33         Ni51   1.907       .  S
O33          C35   1.275       .  A
Ni34         O37   1.907       .  S
Ni34         O39   1.900       .  S
C35         C485   1.457   1_545  S
C35          O45   1.272       .  A
O36         Ni52   1.907       .  S
O36          C42   1.266       .  A
O37          C42   1.262       .  A
C38         C513   1.556       .  S
O39          C41   1.276       .  A
O40         Ni51   1.929       .  S
C41         C457   1.446       .  S
C41          O47   1.282       .  A
C42         C468   1.453   1_545  S
H43          O44   0.966       .  S
O44         Ni52   1.908       .  S
O44         Ni46   1.956       .  S
O44         Ni51   1.911       .  S
O45         Ni46   1.909       .  S
Ni46         O50   1.998       .  S
Ni46         O48   1.888       .  S
O47         Ni52   1.936       .  S
C49         C496   1.554       .  S
C49          O50   1.289       .  A
C54          C55   1.400       .  A
C54          C59   1.394       .  A
C54         C440   1.462       .  S
C55          C56   1.393       .  A
C55          H60   1.085       .  S
C56          C57   1.392       .  A
C56         C454   1.464       .  S
C57          C58   1.398       .  A
C57          H61   1.085       .  S
C58          C59   1.396       .  A
C58         C426   1.457       .  S
C59          H62   1.084       .  S
O63         Ni69   1.971       .  S
O63          C84   1.280       .  A
O64         Ni87   1.987       .  S
O64          C73   1.291       .  A
O65         Ni69   1.927       .  S
O65         Ni87   1.959       .  S
O65         Ni81   1.918       .  S
O65          H88   0.966       .  S
C66         C443   1.447       .  S
C66          O83   1.259       .  A
C66          O75   1.275       .  A
O67         Ni86   1.957       .  S
O67          C73   1.279       .  A
O68         Ni86   1.883       .  S
O68          C70   1.272       .  A
Ni69         O72   1.933       .  S
Ni69         O74   1.896       .  S
C70         C639   1.468       .  S
C70          O80   1.281       .  A
O71         Ni87   1.895       .  S
O71          C77   1.262       .  A
O72          C77   1.273       .  A
C73         C401   1.556       .  S
O74          C76   1.275       .  A
O75         Ni86   1.939   1_556  S
C76         C527   1.459       .  S
C76          O82   1.286       .  A
C77         C384   1.460       .  S
H78          O79   0.962       .  S
O79         Ni87   1.893       .  S
O79         Ni81   1.937       .  S
O79         Ni86   1.901       .  S
O80         Ni81   1.949       .  S
Ni81         O85   1.982       .  S
Ni81         O83   1.874   1_554  S
O82         Ni87   1.957       .  S
C84         C412   1.564       .  S
C84          O85   1.285       .  A
O89         Ni95   1.893       .  S
O89         C110   1.260       .  A
O90        Ni113   1.880       .  S
O90          C99   1.264       .  A
O91         Ni95   1.911       .  S
O91        Ni113   1.867       .  S
O91        Ni107   1.975       .  S
O91         H114   0.966       .  S
C92         C415   1.566       .  S
C92         O109   1.284       .  A
C92         O101   1.277       .  A
O93        Ni112   1.936   1_556  S
O93          C99   1.277   1_556  A
O94        Ni112   1.892   1_556  S
O94          C96   1.274       .  A
Ni95         O98   1.948       .  S
Ni95        O100   1.888       .  S
C96         C373   1.472       .  S
C96         O106   1.277   1_556  A
O97        Ni113   2.021       .  S
O97         C103   1.305       .  A
O98         C103   1.283       .  A
C99         C356   1.457   1_554  S
O100        C102   1.261       .  A
O101       Ni112   1.968       .  S
C102        C345   1.449       .  S
C102        O108   1.260       .  A
C103        C398   1.563       .  S
H104        O105   0.966       .  S
O105       Ni113   2.008       .  S
O105       Ni107   1.910       .  S
O105       Ni112   1.925       .  S
O106       Ni107   1.931       .  S
Ni107       O111   1.896       .  S
Ni107       O109   1.985       .  S
O108       Ni113   1.889       .  S
C110        C583   1.443       .  S
C110        O111   1.262       .  A
O115       Ni121   1.947       .  S
O115        C136   1.275   1_455  A
O116       Ni139   1.963       .  S
O116        C125   1.281   1_455  A
O117       Ni121   1.904       .  S
O117       Ni139   1.941       .  S
O117       Ni133   1.904   1_455  S
O117        H140   0.962   1_455  S
C118        C429   1.448       .  S
C118        O135   1.261       .  A
C118        O127   1.271       .  A
O119       Ni138   1.949       .  S
O119        C125   1.275       .  A
O120       Ni138   1.897       .  S
O120        C122   1.274       .  A
Ni121       O124   1.927       .  S
Ni121       O126   1.889       .  S
C122        C300   1.448       .  S
C122        O132   1.281       .  A
O123       Ni139   1.887       .  S
O123        C129   1.264       .  A
O124        C129   1.272       .  A
C125        C328   1.537       .  S
O126        C128   1.273       .  A
O127       Ni138   1.929       .  S
C128        C538   1.446       .  S
C128        O134   1.276       .  A
C129        C286   1.456       .  S
H130        O131   0.966       .  S
O131       Ni139   1.909   1_655  S
O131       Ni133   1.934       .  S
O131       Ni138   1.915       .  S
O132       Ni133   1.936       .  S
Ni133       O137   1.971       .  S
Ni133       O135   1.880       .  S
O134       Ni139   1.929       .  S
C136        C314   1.543       .  S
C136        O137   1.283       .  A
C141        C142   1.402       .  A
C141        C146   1.397       .  A
C141        C370   1.479       .  S
C142        C143   1.397       .  A
C142        H147   1.084       .  S
C143        C144   1.398       .  A
C143        C272   1.468       .  S
C144        C145   1.396       .  A
C144        H148   1.084       .  S
C145        C146   1.404       .  A
C145        C289   1.474       .  S
C146        H149   1.082       .  S
O150       Ni156   1.945       .  S
O150        C171   1.274       .  A
O151       Ni174   1.986       .  S
O151        C160   1.286       .  A
O152       Ni156   1.904       .  S
O152       Ni174   1.959       .  S
O152       Ni168   1.906       .  S
O152        H175   0.966       .  S
C153        C275   1.455       .  S
C153        O170   1.266       .  A
C153        O162   1.266   1_565  A
O154       Ni173   1.956       .  S
O154        C160   1.277       .  A
O155       Ni173   1.888       .  S
O155        C157   1.271       .  A
Ni156       O159   1.915       .  S
Ni156       O161   1.898       .  S
C157        C555   1.467       .  S
C157        O167   1.278       .  A
O158       Ni174   1.898       .  S
O158        C164   1.265       .  A
O159        C164   1.271       .  A
C160        C499   1.549       .  S
O161        C163   1.271       .  A
O162       Ni173   1.918       .  S
C163        C569   1.455       .  S
C163        O169   1.278       .  A
C164        C261   1.452       .  S
H165        O166   0.966       .  S
O166       Ni174   1.912       .  S
O166       Ni168   1.966       .  S
O166       Ni173   1.927       .  S
O167       Ni168   1.930       .  S
Ni168       O172   2.000       .  S
Ni168       O170   1.899   1_545  S
O169       Ni174   1.940       .  S
C171        C510   1.562       .  S
C171        O172   1.289       .  A
C176        C177   1.392       .  A
C176        C181   1.386       .  A
C176        C482   1.448       .  S
C177        C178   1.388       .  A
C177        H182   1.085       .  S
C178        C179   1.395       .  A
C178        C342   1.446       .  S
C179        C180   1.394       .  A
C179        H183   1.084       .  S
C180        C181   1.399       .  A
C180        C247   1.449       .  S
C181        H184   1.085       .  S
C185        C186   1.402       .  A
C185        C190   1.388       .  A
C185        C258   1.457       .  S
C186        C187   1.402       .  A
C186        H191   1.084       .  S
C187        C188   1.404       .  A
C187        C387   1.474       .  S
C188        C189   1.396       .  A
C188        H192   1.084       .  S
C189        C190   1.393       .  A
C189        C230   1.464       .  S
C190        H193   1.086       .  S
O194       Ni200   1.945       .  S
O194        C215   1.273       .  A
O195       Ni218   1.975       .  S
O195        C204   1.286       .  A
O196       Ni200   1.902       .  S
O196       Ni218   1.941       .  S
O196       Ni212   1.924   1_655  S
O196        H219   0.965       .  S
C197        C597   1.447       .  S
C197        O214   1.267       .  A
C197        O206   1.271       .  A
O198       Ni217   1.940   1_655  S
O198        C204   1.273       .  A
O199       Ni217   1.901   1_655  S
O199        C201   1.275       .  A
Ni200       O203   1.931       .  S
Ni200       O205   1.886   1_655  S
C201        C244   1.457       .  S
C201        O211   1.271       .  A
O202       Ni218   1.884       .  S
O202        C208   1.259       .  A
O203        C208   1.271       .  A
C204        C331   1.539       .  S
O205        C207   1.272       .  A
O206       Ni217   1.913       .  S
C207        C233   1.472       .  S
C207        O213   1.288       .  A
C208        C611   1.450       .  S
H209        O210   0.965       .  S
O210       Ni218   1.893   1_455  S
O210       Ni212   1.932       .  S
O210       Ni217   1.909       .  S
O211       Ni212   1.921   1_655  S
Ni212       O216   1.968   1_455  S
Ni212       O214   1.885       .  S
O213       Ni218   1.954   1_455  S
C215        C317   1.529       .  S
C215        O216   1.282       .  A
C220        C221   1.404       .  A
C220        C225   1.401       .  A
C220        C359   1.471       .  S
C221        C222   1.394       .  A
C221        H226   1.084       .  S
C222        C223   1.390       .  A
C222        C471   1.457       .  S
C223        C224   1.388       .  A
C223        H227   1.085       .  S
C224        C225   1.395       .  A
C224        C303   1.451       .  S
C225        H228   1.084       .  S
C229        C230   1.405       .  A
C229        C234   1.392       .  A
C229        H236   1.082       .  S
C230        C231   1.407       .  A
C231        C232   1.397       .  A
C231        N238   1.441       .  S
C232        C233   1.412       .  A
C232        H237   1.083       .  S
C233        C234   1.409       .  A
C234        N235   1.437       .  S
N235        O239   1.263       .  A
N235        O240   1.262       .  A
N238        O241   1.263       .  A
N238        O242   1.263       .  A
C243        C244   1.402       .  A
C243        C248   1.394       .  A
C243        H250   1.084       .  S
C244        C245   1.412       .  A
C245        C246   1.391       .  A
C245        N252   1.434       .  S
C246        C247   1.398       .  A
C246        H251   1.085       .  S
C247        C248   1.408       .  A
C248        N249   1.443       .  S
N249        O253   1.263       .  A
N249        O254   1.263       .  A
N252        O255   1.262       .  A
N252        O256   1.262       .  A
C257        C258   1.397       .  A
C257        C262   1.403       .  A
C257        H264   1.084       .  S
C258        C259   1.413       .  A
C259        C260   1.392       .  A
C259        N266   1.443       .  S
C260        C261   1.398       .  A
C260        H265   1.085       .  S
C261        C262   1.417       .  A
C262        N263   1.444       .  S
N263        O267   1.263       .  A
N263        O268   1.261       .  A
N266        O269   1.261       .  A
N266        O270   1.263       .  A
C271        C272   1.401       .  A
C271        C276   1.385       .  A
C271        H278   1.084       .  S
C272        C273   1.417       .  A
C273        C274   1.404       .  A
C273        N280   1.440       .  S
C274        C275   1.400       .  A
C274        H279   1.084       .  S
C275        C276   1.407       .  A
C276        N277   1.432       .  S
N277        O281   1.262       .  A
N277        O282   1.262       .  A
N280        O283   1.262       .  A
N280        O284   1.263       .  A
C285        C286   1.403       .  A
C285        C290   1.396       .  A
C285        H292   1.083       .  S
C286        C287   1.406       .  A
C287        C288   1.396       .  A
C287        N294   1.439       .  S
C288        C289   1.410       .  A
C288        H293   1.083       .  S
C289        C290   1.410       .  A
C290        N291   1.442       .  S
N291        O295   1.263       .  A
N291        O296   1.263       .  A
N294        O297   1.262       .  A
N294        O298   1.263       .  A
C299        C300   1.396       .  A
C299        C304   1.398       .  A
C299        H306   1.084       .  S
C300        C301   1.405       .  A
C301        C302   1.390       .  A
C301        N308   1.435       .  S
C302        C303   1.397       .  A
C302        H307   1.085       .  S
C303        C304   1.418       .  A
C304        N305   1.446       .  S
N305        O309   1.263       .  A
N305        O310   1.261       .  A
N308        O311   1.262       .  A
N308        O312   1.263       .  A
C313        C314   1.415   1_554  A
C313        C318   1.434       .  A
C313        H320   1.083   1_554  S
C314        C315   1.430   1_656  A
C315        C316   1.421       .  A
C315        N322   1.436       .  S
C316        C317   1.406   1_455  A
C316        H321   1.084       .  S
C317        C318   1.428       .  A
C318        N319   1.442       .  S
N319        O323   1.263       .  A
N319        O324   1.263       .  A
N322        O325   1.263       .  A
N322        O326   1.263   1_554  A
C327        C328   1.419       .  A
C327        C332   1.430       .  A
C327        H334   1.083       .  S
C328        C329   1.419   1_655  A
C329        C330   1.422       .  A
C329        N336   1.433       .  S
C330        C331   1.418   1_455  A
C330        H335   1.083       .  S
C331        C332   1.423       .  A
C332        N333   1.436       .  S
N333        O337   1.263       .  A
N333        O338   1.262       .  A
N336        O339   1.262       .  A
N336        O340   1.262       .  A
C341        C342   1.397       .  A
C341        C346   1.396       .  A
C341        H348   1.084       .  S
C342        C343   1.410       .  A
C343        C344   1.391       .  A
C343        N350   1.443       .  S
C344        C345   1.398       .  A
C344        H349   1.084       .  S
C345        C346   1.413       .  A
C346        N347   1.442       .  S
N347        O351   1.263       .  A
N347        O352   1.263       .  A
N350        O353   1.262       .  A
N350        O354   1.263       .  A
C355        C356   1.401       .  A
C355        C360   1.404       .  A
C355        H362   1.084   1_556  S
C356        C357   1.406       .  A
C357        C358   1.385       .  A
C357        N364   1.432       .  S
C358        C359   1.401       .  A
C358        H363   1.082       .  S
C359        C360   1.415       .  A
C360        N361   1.441   1_556  S
N361        O365   1.263       .  A
N361        O366   1.263   1_554  A
N364        O367   1.258       .  A
N364        O368   1.263       .  A
C369        C370   1.398       .  A
C369        C374   1.387       .  A
C369        H376   1.083       .  S
C370        C371   1.422       .  A
C371        C372   1.406       .  A
C371        N378   1.439       .  S
C372        C373   1.402       .  A
C372        H377   1.083       .  S
C373        C374   1.410       .  A
C374        N375   1.432       .  S
N375        O379   1.262       .  A
N375        O380   1.261       .  A
N378        O381   1.263       .  A
N378        O382   1.263       .  A
C383        C384   1.402       .  A
C383        C388   1.396       .  A
C383        H390   1.084       .  S
C384        C385   1.413       .  A
C385        C386   1.406       .  A
C385        N392   1.445       .  S
C386        C387   1.406       .  A
C386        H391   1.083       .  S
C387        C388   1.411       .  A
C388        N389   1.443       .  S
N389        O393   1.263       .  A
N389        O394   1.263       .  A
N392        O395   1.262       .  A
N392        O396   1.263       .  A
C397        C398   1.425   1_545  A
C397        C402   1.435       .  A
C397        H404   1.083       .  S
C398        C399   1.421   1_565  A
C399        C400   1.430       .  A
C399        N406   1.426   1_544  S
C400        C401   1.420       .  A
C400        H405   1.083       .  S
C401        C402   1.425       .  A
C402        N403   1.435       .  S
N403        O407   1.263       .  A
N403        O408   1.262       .  A
N406        O409   1.262       .  A
N406        O410   1.263       .  A
C411        C412   1.421       .  A
C411        C416   1.438       .  A
C411        H418   1.083       .  S
C412        C413   1.429       .  A
C413        C414   1.436       .  A
C413        N420   1.436   1_554  S
C414        C415   1.422       .  A
C414        H419   1.083       .  S
C415        C416   1.430       .  A
C416        N417   1.435       .  S
N417        O421   1.262       .  A
N417        O422   1.262       .  A
N420        O423   1.262       .  A
N420        O424   1.263       .  A
C425        C426   1.398       .  A
C425        C430   1.392       .  A
C425        H432   1.084       .  S
C426        C427   1.416       .  A
C427        C428   1.393       .  A
C427        N434   1.441       .  S
C428        C429   1.395       .  A
C428        H433   1.084       .  S
C429        C430   1.410       .  A
C430        N431   1.439       .  S
N431        O435   1.263       .  A
N431        O436   1.262       .  A
N434        O437   1.263       .  A
N434        O438   1.262       .  A
C439        C440   1.400       .  A
C439        C444   1.394       .  A
C439        H446   1.084       .  S
C440        C441   1.414       .  A
C441        C442   1.390       .  A
C441        N448   1.433       .  S
C442        C443   1.395       .  A
C442        H447   1.085       .  S
C443        C444   1.408       .  A
C444        N445   1.435       .  S
N445        O449   1.263       .  A
N445        O450   1.261       .  A
N448        O451   1.262       .  A
N448        O452   1.261       .  A
C453        C454   1.402       .  A
C453        C458   1.401       .  A
C453        H460   1.084       .  S
C454        C455   1.414       .  A
C455        C456   1.388       .  A
C455        N462   1.438       .  S
C456        C457   1.394       .  A
C456        H461   1.085       .  S
C457        C458   1.412       .  A
C458        N459   1.441       .  S
N459        O463   1.263       .  A
N459        O464   1.262       .  A
N462        O465   1.263       .  A
N462        O466   1.262       .  A
C467        C468   1.397       .  A
C467        C472   1.399       .  A
C467        H474   1.084       .  S
C468        C469   1.413       .  A
C469        C470   1.388       .  A
C469        N476   1.438       .  S
C470        C471   1.394       .  A
C470        H475   1.084       .  S
C471        C472   1.416       .  A
C472        N473   1.439       .  S
N473        O477   1.263       .  A
N473        O478   1.263       .  A
N476        O479   1.263       .  A
N476        O480   1.263       .  A
C481        C482   1.400       .  A
C481        C486   1.395       .  A
C481        H488   1.084       .  S
C482        C483   1.407       .  A
C483        C484   1.392       .  A
C483        N490   1.443       .  S
C484        C485   1.404       .  A
C484        H489   1.084       .  S
C485        C486   1.409       .  A
C486        N487   1.440       .  S
N487        O491   1.263       .  A
N487        O492   1.263       .  A
N490        O493   1.262       .  A
N490        O494   1.263       .  A
C495        C496   1.419       .  A
C495        C500   1.445       .  A
C495        H502   1.083       .  S
C496        C497   1.428       .  A
C497        C498   1.425   1_655  A
C497        N504   1.438       .  S
C498        C499   1.411       .  A
C498        H503   1.084       .  S
C499        C500   1.433   1_455  A
C500        N501   1.441   1_655  S
N501        O505   1.263   1_455  A
N501        O506   1.262       .  A
N504        O507   1.263       .  A
N504        O508   1.263       .  A
C509        C510   1.422       .  A
C509        C514   1.448       .  A
C509        H516   1.083       .  S
C510        C511   1.430       .  A
C511        C512   1.420       .  A
C511        N518   1.435       .  S
C512        C513   1.411       .  A
C512        H517   1.084       .  S
C513        C514   1.434       .  A
C514        N515   1.438       .  S
N515        O519   1.263       .  A
N515        O520   1.262   1_545  A
N518        O521   1.263       .  A
N518        O522   1.263       .  A
C523        C524   1.403       .  A
C523        C528   1.408       .  A
C523        H530   1.083       .  S
C524        C525   1.399       .  A
C525        C526   1.383       .  A
C525        N532   1.431       .  S
C526        C527   1.401   1_556  A
C526        H531   1.076       .  S
C527        C528   1.419   1_554  A
C528        N529   1.448   1_556  S
N529        O533   1.262       .  A
N529        O534   1.263       .  A
N532        O535   1.262       .  A
N532        O536   1.262       .  A
C537        C538   1.402       .  A
C537        C542   1.397       .  A
C537        H544   1.083       .  S
C538        C539   1.407       .  A
C539        C540   1.388       .  A
C539        N546   1.442       .  S
C540        C541   1.400       .  A
C540        H545   1.085       .  S
C541        C542   1.411       .  A
C542        N543   1.443       .  S
N543        O547   1.263       .  A
N543        O548   1.262       .  A
N546        O549   1.262       .  A
N546        O550   1.263       .  A
C551        C552   1.398       .  A
C551        C556   1.388       .  A
C551        H558   1.084       .  S
C552        C553   1.409       .  A
C553        C554   1.397       .  A
C553        N560   1.441       .  S
C554        C555   1.406       .  A
C554        H559   1.083       .  S
C555        C556   1.415       .  A
C556        N557   1.436       .  S
N557        O561   1.263       .  A
N557        O562   1.262       .  A
N560        O563   1.263       .  A
N560        O564   1.263       .  A
C565        C566   1.398       .  A
C565        C570   1.392   1_565  A
C565        H572   1.084   1_565  S
C566        C567   1.418       .  A
C567        C568   1.403       .  A
C567        N574   1.440       .  S
C568        C569   1.399   1_565  A
C568        H573   1.084       .  S
C569        C570   1.410       .  A
C570        N571   1.437       .  S
N571        O575   1.262       .  A
N571        O576   1.262       .  A
N574        O577   1.263       .  A
N574        O578   1.263       .  A
C579        C580   1.407       .  A
C579        C584   1.391       .  A
C579        H586   1.079       .  S
C580        C581   1.405       .  A
C581        C582   1.395       .  A
C581        N588   1.442       .  S
C582        C583   1.405       .  A
C582        H587   1.083       .  S
C583        C584   1.402       .  A
C584        N585   1.443       .  S
N585        O589   1.263       .  A
N585        O590   1.262       .  A
N588        O591   1.263       .  A
N588        O592   1.262       .  A
C593        C594   1.411       .  A
C593        C598   1.389       .  A
C593        H600   1.077       .  S
C594        C595   1.407       .  A
C595        C596   1.395       .  A
C595        N602   1.441       .  S
C596        C597   1.406       .  A
C596        H601   1.084       .  S
C597        C598   1.401       .  A
C598        N599   1.442       .  S
N599        O603   1.263       .  A
N599        O604   1.263       .  A
N602        O605   1.263       .  A
N602        O606   1.263   1_455  A
C607        C608   1.396       .  A
C607        C612   1.392       .  A
C607        H614   1.084       .  S
C608        C609   1.413       .  A
C609        C610   1.396       .  A
C609        N616   1.443       .  S
C610        C611   1.397       .  A
C610        H615   1.084       .  S
C611        C612   1.410       .  A
C612        N613   1.438       .  S
N613        O617   1.262       .  A
N613        O618   1.263       .  A
N616        O619   1.263       .  A
N616        O620   1.263       .  A
C621        C622   1.400       .  A
C621        C626   1.392       .  A
C621        H628   1.085       .  S
C622        C623   1.411       .  A
C623        C624   1.401       .  A
C623        N630   1.444       .  S
C624        C625   1.400       .  A
C624        H629   1.084       .  S
C625        C626   1.410       .  A
C626        N627   1.445       .  S
N627        O631   1.263       .  A
N627        O632   1.262       .  A
N630        O633   1.262       .  A
N630        O634   1.263       .  A
C635        C636   1.402       .  A
C635        C640   1.397       .  A
C635        H642   1.084       .  S
C636        C637   1.408       .  A
C637        C638   1.396       .  A
C637        N644   1.442       .  S
C638        C639   1.406       .  A
C638        H643   1.084       .  S
C639        C640   1.410       .  A
C640        N641   1.433       .  S
N641        O645   1.262       .  A
N641        O646   1.262       .  A
N644        O647   1.263       .  A
N644        O648   1.263       .  A
