geometry optimzed in LAMMPS
_audit_creation_date              2020-11-30 
_audit_creation_method            'lammps2cif' 
_symmetry_space_group_name_H-M    'P1' 
_symmetry_Int_Tables_number       1 
_symmetry_cell_setting            triclinic 
loop_ 
_symmetry_equiv_pos_as_xyz 
  x,y,z 
_cell_length_a                    40.04845419 
_cell_length_b                    40.02228870971827 
_cell_length_c                    40.01989494118487 
_cell_angle_alpha                 89.91076497105202 
_cell_angle_beta                  89.9049369890418 
_cell_angle_gamma                 90.05563772903346 
loop_ 
_atom_site_label 
_atom_site_type_symbol 
_atom_site_fract_x 
_atom_site_fract_y 
_atom_site_fract_z 
_atom_site_charge 
O1          O  0.61983654  0.59933465  0.68234517    -0.88700
C2          C  0.63224348  0.55209389  0.59278190     0.87300
Mg3        Mg  0.57482503  0.62649422  0.69515002     1.58100
O4          O  0.67951151  0.62450966  0.60212736    -0.88500
O5          O  0.67421158  0.60628943  0.67792159    -0.75800
C6          C  0.54778396  0.72012176  0.56255143     0.92300
O7          O  0.56599407  0.56509207  0.63495983    -0.75600
O8          O  0.53621123  0.70729041  0.58895508    -0.83100
Mg9        Mg  0.61404128  0.55029106  0.66276327     1.58000
C10         C  0.68871006  0.69503268  0.53075560     0.92300
O11         O  0.65874923  0.53147064  0.69384996    -0.81400
H12         H  0.71283740  0.65125962  0.62795206    -0.06700
C13         C  0.59156200  0.63552333  0.55240437     0.87200
O14         O  0.60209836  0.67529633  0.68030147    -0.75900
O15         O  0.64298640  0.56237526  0.61989780    -0.88700
O16         O  0.69051686  0.66378142  0.53556093    -0.81500
C17         C  0.71837937  0.56287934  0.54955822     0.92400
C18         C  0.68979637  0.52572791  0.69064571     0.92200
Mg19       Mg  0.62635971  0.69575710  0.58264345     1.58000
O20         O  0.57827891  0.71607163  0.55338295    -0.81400
O21         O  0.67389839  0.67859118  0.61044750    -0.75600
O22         O  0.71373706  0.55341673  0.58002584    -0.81500
O23         O  0.58351426  0.53632375  0.70543976    -0.83200
O24         O  0.52823535  0.69138322  0.66207620    -0.81500
C25         C  0.68987049  0.65126293  0.61378244     0.86700
O26         O  0.59740678  0.68121949  0.62588171    -0.88600
O27         O  0.61805576  0.64633100  0.56408784    -0.88800
O28         O  0.56418628  0.63723352  0.56843216    -0.75800
Mg29       Mg  0.69219755  0.58003540  0.62950119     1.58000
O30         O  0.70542425  0.58919259  0.53794511    -0.83200
H31         H  0.64657635  0.62359946  0.71683290    -0.06900
O32         O  0.55885544  0.61857903  0.64488962    -0.88500
H33         H  0.52584587  0.59154351  0.61896214    -0.06700
H34         H  0.62056543  0.71498095  0.65448924    -0.06900
C35         C  0.54901033  0.59186287  0.63278760     0.86600
C36         C  0.64664460  0.61008889  0.69345889     0.87200
C37         C  0.60703265  0.69161439  0.65337917     0.87300
H38         H  0.59194886  0.62315388  0.52840871    -0.06900
O39         O  0.63467811  0.56923848  0.56608976    -0.75900
Mg40       Mg  0.54837166  0.66267659  0.61730987     1.58000
H41         H  0.61933545  0.52837423  0.59201255    -0.06900
C42         C  0.55670535  0.54685544  0.71826182     0.92300
O43         O  0.52975348  0.66112243  0.70862428    -0.83100
C44         C  0.52110946  0.68758290  0.69270150     0.92300
O45         O  0.70577255  0.53516067  0.66443283    -0.83100
Mg46       Mg  0.66130366  0.61834163  0.55243357     1.58200
O47         O  0.54649278  0.57703476  0.71421655    -0.81500
O48         O  0.66300105  0.71172332  0.53991680    -0.83200
O49         O  0.87091901  0.56901182  0.34997780    -0.88700
C50         C  0.88060166  0.65827008  0.30186764     0.87300
Mg51       Mg  0.82749109  0.55512128  0.37853801     1.58100
O52         O  0.92897566  0.65020529  0.37346800    -0.88500
O53         O  0.92526580  0.57415472  0.35605167    -0.75800
C54         C  0.79712961  0.68692813  0.47341349     0.92300
O55         O  0.81538321  0.61535300  0.31721590    -0.75600
O56         O  0.78497147  0.66114231  0.45989046    -0.83100
Mg57       Mg  0.86341469  0.58836557  0.30111773     1.58000
C58         C  0.93741746  0.72206885  0.44331204     0.92300
O59         O  0.90774663  0.55771217  0.28173595    -0.81400
H60         H  0.96333002  0.62560584  0.40007187    -0.06700
C61         C  0.83971659  0.69836714  0.38632323     0.87200
O62         O  0.85567110  0.57113468  0.42627630    -0.75900
O63         O  0.89204601  0.63145079  0.31223489    -0.88700
O64         O  0.93914012  0.71691948  0.41210827    -0.81500
C65         C  0.96614774  0.70274925  0.31060254     0.92400
C66         C  0.93871273  0.56071445  0.27567965     0.92200
Mg67       Mg  0.87632791  0.66904436  0.44603244     1.58000
O68         O  0.82761643  0.69603737  0.46853871    -0.81400
O69         O  0.92437384  0.64258772  0.42777915    -0.75600
O70         O  0.96213462  0.67211220  0.30153317    -0.81500
O71         O  0.83320467  0.54553237  0.28780582    -0.83200
O72         O  0.78175899  0.58698645  0.44359811    -0.81500
C73         C  0.94000630  0.63918558  0.40022503     0.86700
O74         O  0.84835834  0.62526090  0.43270565    -0.88600
O75         O  0.86666752  0.68717967  0.39650766    -0.88800
O76         O  0.81266965  0.68188145  0.38889885    -0.75800
Mg77       Mg  0.94168266  0.62259147  0.32908235     1.58000
O78         O  0.95285691  0.71439307  0.33678574    -0.83200
H79         H  0.89849255  0.53476328  0.37368548    -0.06900
O80         O  0.80978868  0.60510250  0.37091946    -0.88500
H81         H  0.77555433  0.63034495  0.34476859    -0.06700
H82         H  0.87383976  0.59754322  0.46553837    -0.06900
C83         C  0.79901858  0.61701172  0.34444734     0.86600
C84         C  0.89803365  0.55818535  0.36018822     0.87200
C85         C  0.85958708  0.59815133  0.44262728     0.87300
H86         H  0.83937003  0.72234119  0.37383639    -0.06900
O87         O  0.88243098  0.68505510  0.31883363    -0.75900
Mg88       Mg  0.79870716  0.63255936  0.41490285     1.58000
H89         H  0.86747106  0.65862859  0.27829046    -0.06900
C90         C  0.80706552  0.53221381  0.29935468     0.92300
O91         O  0.78488226  0.53945344  0.41521765    -0.83100
C92         C  0.77658477  0.55584704  0.44141247     0.92300
O93         O  0.95487984  0.58699434  0.28454668    -0.83100
Mg94       Mg  0.90945874  0.69941521  0.36729436     1.58200
O95         O  0.79804826  0.53562923  0.33002148    -0.81500
O96         O  0.91186076  0.71298006  0.46038512    -0.83200
O97         O  0.87450955  0.43710908  0.14480688    -0.88700
C98         C  0.88668994  0.34852110  0.19366590     0.87300
Mg99       Mg  0.83064845  0.44935658  0.11612267     1.58100
O100        O  0.93565341  0.35727168  0.12220854    -0.88500
O101        O  0.92904328  0.43340345  0.13887732    -0.75800
C102        C  0.80476026  0.31511594  0.02321721     0.92300
O103        O  0.82016297  0.38943475  0.17797707    -0.75600
O104        O  0.79214864  0.34119506  0.03573405    -0.83100
Mg105      Mg  0.86733873  0.41799398  0.19385121     1.58000
C106        C  0.94676438  0.28466099  0.05321036     0.92300
O107        O  0.91052085  0.44999267  0.21315926    -0.81400
H108        H  0.96905713  0.38302756  0.09530121    -0.06700
C109        C  0.84781584  0.30645354  0.10982715     0.87200
O110        O  0.85946333  0.43380564  0.06844893    -0.75900
O111        O  0.89740809  0.37562058  0.18316054    -0.88700
O112        O  0.94817756  0.29004124  0.08439672    -0.81500
C113        C  0.97408019  0.30633120  0.18586733     0.92400
C114        C  0.94150764  0.44827098  0.21936813     0.92200
Mg115      Mg  0.88364033  0.33615717  0.04984679     1.58000
O116        O  0.83548596  0.30690319  0.02822147    -0.81400
O117        O  0.93068719  0.36450188  0.06784192    -0.75600
O118        O  0.96913164  0.33701740  0.19445770    -0.81500
O119        O  0.83588534  0.46025827  0.20673017    -0.83200
O120        O  0.78621768  0.41561540  0.05136485    -0.81500
C121        C  0.94623095  0.36857205  0.09532278     0.86700
O122        O  0.85414562  0.37932988  0.06263690    -0.88600
O123        O  0.87454003  0.31821898  0.09950864    -0.88800
O124        O  0.82033335  0.32211844  0.10696157    -0.75800
Mg125      Mg  0.94702229  0.38583312  0.16642883     1.58000
O126        O  0.96120871  0.29394867  0.15983442    -0.83200
H127        H  0.90131721  0.47175163  0.12062892    -0.06900
O128        O  0.81462629  0.39889457  0.12415567    -0.88500
H129        H  0.78093836  0.37293926  0.15050325    -0.06700
H130        H  0.87870805  0.40764567  0.02947224    -0.06900
C131        C  0.80402287  0.38696481  0.15072834     0.86600
C132        C  0.90140016  0.44852832  0.13446465     0.87200
C133        C  0.86442468  0.40674931  0.05241138     0.87300
H134        H  0.84802258  0.28265651  0.12265430    -0.06900
O135        O  0.88967313  0.32163904  0.17701646    -0.75900
Mg136      Mg  0.80469544  0.37068746  0.08045127     1.58000
H137        H  0.87325502  0.34793026  0.21710954    -0.06900
C138        C  0.80896271  0.47183897  0.19521308     0.92300
O139        O  0.78763072  0.46352573  0.07922385    -0.83100
C140        C  0.77998141  0.44660821  0.05317093     0.92300
O141        O  0.95875467  0.42261036  0.21067693    -0.83100
Mg142      Mg  0.91757527  0.30748016  0.12889695     1.58200
O143        O  0.80020377  0.46771933  0.16458901    -0.81500
O144        O  0.92121058  0.29339777  0.03597653    -0.83200
C145        C  0.75588330  0.50974936  0.98928686     0.79800
N146        N  0.74268532  0.49029616  0.96482719    -0.78500
C147        C  0.74134870  0.45674438  0.96890087     0.82300
N148        N  0.75241453  0.44306860  0.99817419    -0.78400
C149        C  0.76520178  0.46248142  0.02305201     0.82400
N150        N  0.76719668  0.49593368  0.01824206    -0.80100
C151        C  0.00769510  0.50653852  0.24689510     0.79800
N152        N  0.99032428  0.53255608  0.25959167    -0.78500
C153        C  0.95656088  0.53212546  0.25979456     0.82300
N154        N  0.94018129  0.50443566  0.24762860    -0.78400
C155        C  0.95795185  0.47776734  0.23514889     0.82400
N156        N  0.99166096  0.47943539  0.23463439    -0.80100
O157        O  0.62622026  0.39191398  0.81304797    -0.88700
C158        C  0.63786450  0.44278408  0.90094294     0.87300
Mg159      Mg  0.58161396  0.36306196  0.80171377     1.58100
O160        O  0.68636037  0.37081220  0.89366446    -0.88500
O161        O  0.68083164  0.38686052  0.81728566    -0.75800
C162        C  0.55424996  0.27587527  0.93846314     0.92300
O163        O  0.57129653  0.42645747  0.85941808    -0.75600
O164        O  0.54284478  0.28686643  0.91126275    -0.83100
Mg165      Mg  0.61894727  0.44148153  0.83112782     1.58000
C166        C  0.69596378  0.30321189  0.96777380     0.92300
O167        O  0.66276023  0.46126387  0.79991792    -0.81400
H168        H  0.71918424  0.34300498  0.86822694    -0.06700
C169        C  0.59837042  0.36086999  0.94395385     0.87200
O170        O  0.60971328  0.31542274  0.81832086    -0.75900
O171        O  0.64836274  0.43146687  0.87414306    -0.88700
O172        O  0.69770500  0.33414119  0.96129602    -0.81500
C173        C  0.72361875  0.43535306  0.94456474     0.92400
C174        C  0.69352705  0.46844442  0.80245508     0.92200
Mg175      Mg  0.63322058  0.29957404  0.91674871     1.58000
O176        O  0.58476260  0.28060504  0.94738097    -0.81400
O177        O  0.68059779  0.31628845  0.88769679    -0.75600
O178        O  0.71861606  0.44396814  0.91388812    -0.81500
O179        O  0.58813373  0.45333770  0.78781320    -0.83200
O180        O  0.53473903  0.29869867  0.83763233    -0.81500
C181        C  0.69646114  0.34356479  0.88284305     0.86700
O182        O  0.60420600  0.31126313  0.87289834    -0.88600
O183        O  0.62492556  0.34979700  0.93266450    -0.88800
O184        O  0.57095000  0.35784249  0.92829311    -0.75800
Mg185      Mg  0.69811679  0.41507585  0.86488265     1.58000
O186        O  0.71203542  0.40853572  0.95657715    -0.83200
H187        H  0.65360806  0.36749766  0.77910915    -0.06900
O188        O  0.56558506  0.37251928  0.85150837    -0.88500
H189        H  0.53165942  0.39959742  0.87619381    -0.06700
H190        H  0.62833082  0.27697614  0.84572178    -0.06900
C191        C  0.55494667  0.39938215  0.86249080     0.86600
C192        C  0.65332788  0.38169266  0.80207298     0.87200
C193        C  0.61439904  0.30010478  0.84586031     0.87300
H194        H  0.59870052  0.37450702  0.96725041    -0.06900
O195        O  0.64092249  0.42683955  0.92827557    -0.75900
Mg196      Mg  0.55511047  0.32983509  0.88082857     1.58000
H197        H  0.62474234  0.46638398  0.90093227    -0.06900
C198        C  0.56111462  0.44152451  0.77664622     0.92300
O199        O  0.53681518  0.32710612  0.78996267    -0.83100
C200        C  0.52761280  0.30142308  0.80691223     0.92300
O201        O  0.71041898  0.45964265  0.82829729    -0.83100
Mg202      Mg  0.66807704  0.37851958  0.94318205     1.58200
O203        O  0.55212637  0.41113680  0.78189979    -0.81500
O204        O  0.67010571  0.28603627  0.96000770    -0.83200
O205        O  0.37354142  0.09934302  0.81807016    -0.88700
C206        C  0.36370075  0.04881517  0.90567679     0.87300
Mg207      Mg  0.41841830  0.12701675  0.80570044     1.58100
O208        O  0.31644927  0.12126371  0.89970431    -0.88500
O209        O  0.31922589  0.10588698  0.82328829    -0.75800
C210        C  0.44968895  0.21565469  0.94105426     0.92300
O211        O  0.42865820  0.06341705  0.86249714    -0.75600
O212        O  0.46093287  0.20268152  0.91462864    -0.83100
Mg213      Mg  0.37990427  0.04959715  0.83539540     1.58000
C214        C  0.30822333  0.18845992  0.97509574     0.92300
O215        O  0.33484625  0.03159310  0.80521762    -0.81400
H216        H  0.28282346  0.14940942  0.87579259    -0.06700
C217        C  0.40527524  0.13017740  0.94880538     0.87200
O218        O  0.39143145  0.17513366  0.82309953    -0.75900
O219        O  0.35214362  0.05980203  0.87915553    -0.88700
O220        O  0.30496580  0.15768660  0.96836033    -0.81500
C221        C  0.27927517  0.05728309  0.95023170     0.92400
C222        C  0.30390013  0.02555306  0.80834492     0.92200
Mg223      Mg  0.37015498  0.19176605  0.92208476     1.58000
O224        O  0.41923225  0.21167400  0.95061890    -0.81400
O225        O  0.32195114  0.17574700  0.89444777    -0.75600
O226        O  0.28322209  0.04796010  0.91974342    -0.81500
O227        O  0.40844648  0.03761521  0.79101523    -0.83200
O228        O  0.46598716  0.19140988  0.83980640    -0.81500
C229        C  0.30597344  0.14861390  0.88963197     0.86700
O230        O  0.39809350  0.17955640  0.87755259    -0.88600
O231        O  0.37863974  0.14176808  0.93825076    -0.88800
O232        O  0.43228396  0.13236286  0.93218956    -0.75800
Mg233      Mg  0.30269801  0.07756613  0.87110819     1.58000
O234        O  0.29170641  0.08394031  0.96142295    -0.83200
H235        H  0.34637632  0.12463941  0.78461548    -0.06900
O236        O  0.43524020  0.11742005  0.85515051    -0.88500
H237        H  0.46897768  0.08933933  0.87897027    -0.06700
H238        H  0.37375315  0.21390869  0.85062773    -0.06900
C239        C  0.44549440  0.09019665  0.86571409     0.86600
C240        C  0.34659422  0.11033566  0.80755901     0.87200
C241        C  0.38743960  0.19063059  0.85064517     0.87300
H242        H  0.40529931  0.11668266  0.97222294    -0.06900
O243        O  0.36191261  0.06512303  0.93288388    -0.75900
Mg244      Mg  0.44716943  0.16011713  0.88410908     1.58000
H245        H  0.37681868  0.02521930  0.90543279    -0.06900
C246        C  0.43624958  0.04780183  0.78024678     0.92300
O247        O  0.46303907  0.16265740  0.79245409    -0.83100
C248        C  0.47191030  0.18880249  0.80876157     0.92300
O249        O  0.28793451  0.03422312  0.83476473    -0.83100
Mg250      Mg  0.33519815  0.11338495  0.94876263     1.58200
O251        O  0.44678184  0.07772170  0.78558947    -0.81500
O252        O  0.33467255  0.20457969  0.96670492    -0.83200
C253        C  0.50233282  0.24775039  0.01004614     0.79800
N254        N  0.52899479  0.26010789  0.99276137    -0.78500
C255        C  0.52898777  0.25875502  0.95900060     0.82300
N256        N  0.50185187  0.24612890  0.94311242    -0.78400
C257        C  0.47499277  0.23424046  0.96009205     0.82400
N258        N  0.47552806  0.23449127  0.99384947    -0.80100
C259        C  0.49464653  0.24679840  0.74028851     0.79800
N260        N  0.50681968  0.27365273  0.75677127    -0.78500
C261        C  0.50996610  0.27310534  0.79039326     0.82300
N262        N  0.49966699  0.24519022  0.80770893    -0.78400
C263        C  0.48701705  0.21797702  0.79098833     0.82400
N264        N  0.48513319  0.21902869  0.75723876    -0.80100
C265        C  0.50579072  0.99324304  0.75274398     0.79800
N266        N  0.48938098  0.02127300  0.76293592    -0.78500
C267        C  0.45566381  0.02156911  0.76330939     0.82300
N268        N  0.43894595  0.99388858  0.75320458    -0.78400
C269        C  0.45493596  0.96590318  0.74275798     0.82400
N270        N  0.48872129  0.96552990  0.74259606    -0.80100
C271        C  0.98822329  0.00539021  0.25223226     0.79800
N272        N  0.00562700  0.03183713  0.23963258    -0.78500
C273        C  0.03935840  0.03117804  0.24003349     0.82300
N274        N  0.05508075  0.00358890  0.25175573    -0.78400
C275        C  0.03807893  0.97684718  0.26372199     0.82400
N276        N  0.00432190  0.97798433  0.26459112    -0.80100
C277        C  0.25190355  0.25736393  0.99891195     0.79800
N278        N  0.22424479  0.24123375  0.00988422    -0.78500
C279        C  0.22383398  0.20748620  0.01206830     0.82300
N280        N  0.25152541  0.18983278  0.00197860    -0.78400
C281        C  0.27943223  0.20628222  0.99046870     0.82400
N282        N  0.27934809  0.24002848  0.98955979    -0.80100
C283        C  0.25336644  0.98808437  0.00599040     0.79800
N284        N  0.26462051  0.00417073  0.97807764    -0.78500
C285        C  0.26162281  0.03773896  0.97580915     0.82300
N286        N  0.24851282  0.05475547  0.00196660    -0.78400
C287        C  0.23771806  0.03905534  0.03001798     0.82400
N288        N  0.23971208  0.00540591  0.03188157    -0.80100
C289        C  0.25771329  0.99778573  0.25180281     0.79800
N290        N  0.24079441  0.98851102  0.27961085    -0.78500
C291        C  0.20704424  0.98936484  0.28019478     0.82300
N292        N  0.19024595  0.00067491  0.25247162    -0.78400
C293        C  0.20749957  0.01066206  0.22446338     0.82400
N294        N  0.24118560  0.00863308  0.22438229    -0.80100
C295        C  0.00775656  0.25582089  0.98939873     0.79800
N296        N  0.03242750  0.24248641  0.00843680    -0.78500
C297        C  0.02971415  0.24291341  0.04214812     0.82300
N298        N  0.00149229  0.25589445  0.05645915    -0.78400
C299        C  0.97646837  0.26898294  0.03736248     0.82400
N300        N  0.98002223  0.26912888  0.00376748    -0.80100
C301        C  0.00962003  0.26231792  0.25928897     0.79800
N302        N  0.99533511  0.28646997  0.24012931    -0.78500
C303        C  0.99339239  0.28249501  0.20659668     0.82300
N304        N  0.00503510  0.25356180  0.19262741    -0.78400
C305        C  0.01898414  0.22901594  0.21179748     0.82400
N306        N  0.02143652  0.23378006  0.24518644    -0.80100
O307        O  0.12560704  0.10394948  0.18562661    -0.88700
C308        C  0.13438054  0.05334013  0.09791855     0.87300
Mg309      Mg  0.08295347  0.13420868  0.19843603     1.58100
O310        O  0.18427710  0.12418858  0.10468452    -0.88500
O311        O  0.18018423  0.10808455  0.18125952    -0.75800
C312        C  0.05389476  0.22448279  0.06311208     0.92300
O313        O  0.06933564  0.07189071  0.13984734    -0.75600
O314        O  0.04211030  0.21333173  0.09019568    -0.83100
Mg315      Mg  0.11668739  0.05494031  0.16734548     1.58000
C316        C  0.19473460  0.19100754  0.02853532     0.92300
O317        O  0.16004084  0.03426751  0.19824061    -0.81400
H318        H  0.21899949  0.15121715  0.12831980    -0.06700
C319        C  0.09549711  0.13705332  0.05552060     0.87200
O320        O  0.11274011  0.18062235  0.18088773    -0.75900
O321        O  0.14588374  0.06416487  0.12447588    -0.88700
O322        O  0.19707896  0.16026881  0.03590323    -0.81500
C323        C  0.21962692  0.05910362  0.05476718     0.92400
C324        C  0.19074767  0.02700490  0.19557149     0.92200
Mg325      Mg  0.13315481  0.19685517  0.08187122     1.58000
O326        O  0.08415138  0.21837560  0.05381103    -0.81400
O327        O  0.18094491  0.17891105  0.10936725    -0.75600
O328        O  0.21539278  0.05022562  0.08535584    -0.81500
O329        O  0.08619492  0.04371645  0.21025722    -0.83200
O330        O  0.03861283  0.19990982  0.16473534    -0.81500
C331        C  0.19581531  0.15119817  0.11451505     0.86700
O332        O  0.10514569  0.18618295  0.12661031    -0.88600
O333        O  0.12269450  0.14709779  0.06624164    -0.88800
O334        O  0.06849479  0.14111907  0.07179613    -0.75800
Mg335      Mg  0.19586780  0.07980887  0.13347806     1.58000
O336        O  0.20736998  0.08562705  0.04295245    -0.83200
H337        H  0.15347173  0.12711659  0.21996767    -0.06900
O338        O  0.06521989  0.12590300  0.14879834    -0.88500
H339        H  0.03030781  0.10009712  0.12416513    -0.06700
H340        H  0.13215087  0.21862271  0.15331046    -0.06900
C341        C  0.05372896  0.09946635  0.13754275     0.86600
C342        C  0.15289012  0.11335368  0.19674723     0.87200
C343        C  0.11701931  0.19623480  0.15339756     0.87300
H344        H  0.09482404  0.12357064  0.03214312    -0.06900
O345        O  0.13667721  0.06965919  0.07074713    -0.75900
Mg346      Mg  0.05507057  0.16919404  0.12015069     1.58000
H347        H  0.12073500  0.03002670  0.09813665    -0.06900
C348        C  0.05987126  0.05595654  0.22240257     0.92300
O349        O  0.04138856  0.17280195  0.21308081    -0.83100
C350        C  0.03339433  0.19867725  0.19594426     0.92300
O351        O  0.20759763  0.03534653  0.16954931    -0.83100
Mg352      Mg  0.16513555  0.11704690  0.05552215     1.58200
O353        O  0.05172686  0.08678868  0.21836723    -0.81500
O354        O  0.16881331  0.20802076  0.03670652    -0.83200
O355        O  0.37001628  0.89130419  0.68750570    -0.88700
C356        C  0.36142247  0.94254204  0.59962792     0.87300
Mg357      Mg  0.41414985  0.86232317  0.69909216     1.58100
O358        O  0.31113554  0.87179101  0.60525488    -0.88500
O359        O  0.31551608  0.88649566  0.68172172    -0.75800
C360        C  0.44135376  0.77588110  0.56173385     0.92300
O361        O  0.42666554  0.92639564  0.64322002    -0.75600
O362        O  0.45235109  0.78727548  0.58892593    -0.83100
Mg363      Mg  0.37820124  0.94090583  0.67038488     1.58000
C364        C  0.30031464  0.80504063  0.52949038     0.92300
O365        O  0.33393261  0.95998206  0.70087790    -0.81400
H366        H  0.27673250  0.84455301  0.62933131    -0.06700
C367        C  0.39898153  0.86175663  0.55593145     0.87200
O368        O  0.38559940  0.81510949  0.68137091    -0.75900
O369        O  0.35006773  0.93158043  0.62629050    -0.88700
O370        O  0.29779752  0.83590140  0.53626874    -0.81500
C371        C  0.27596787  0.93757194  0.55520724     0.92400
C372        C  0.30339633  0.96749850  0.69746409     0.92200
Mg373      Mg  0.36260605  0.80040063  0.58200662     1.58000
O374        O  0.41108549  0.78066890  0.55215983    -0.81400
O375        O  0.31494735  0.81713784  0.61027586    -0.75600
O376        O  0.28130874  0.94685701  0.58553668    -0.81500
O377        O  0.40712904  0.95158408  0.71502953    -0.83200
O378        O  0.45927182  0.79756194  0.66324308    -0.81500
C379        C  0.29983938  0.84471757  0.61531234     0.86700
O380        O  0.39099058  0.81169289  0.62668041    -0.88600
O381        O  0.37205754  0.85026516  0.56601344    -0.88800
O382        O  0.42582591  0.85877140  0.57259396    -0.75800
Mg383      Mg  0.29982903  0.91597263  0.63422519     1.58000
O384        O  0.28629750  0.90999889  0.54410313    -0.83200
H385        H  0.34164300  0.86617468  0.72020861    -0.06900
O386        O  0.43054434  0.87217781  0.64964821    -0.88500
H387        H  0.46603339  0.89901301  0.62678646    -0.06700
H388        H  0.36619700  0.77743127  0.65346671    -0.06900
C389        C  0.44231549  0.89901148  0.63972751     0.86600
C390        C  0.34258646  0.88090212  0.69755664     0.87200
C391        C  0.38053500  0.80033944  0.65359878     0.87300
H392        H  0.39942290  0.87587805  0.53288520    -0.06900
O393        O  0.35786409  0.92696162  0.57215015    -0.75900
Mg394      Mg  0.44045300  0.82977501  0.61988949     1.58000
H395        H  0.37555646  0.96557004  0.59984908    -0.06900
C396        C  0.43466061  0.94047951  0.72551992     0.92300
O397        O  0.45818792  0.82605019  0.71084848    -0.83100
C398        C  0.46631684  0.80003551  0.69402688     0.92300
O399        O  0.28735355  0.95976654  0.67084135    -0.83100
Mg400      Mg  0.32935922  0.87955359  0.55601960     1.58200
O401        O  0.44425416  0.91038412  0.71963026    -0.81500
O402        O  0.32640128  0.78838060  0.53778626    -0.83200
O403        O  0.12172137  0.89975042  0.31704400    -0.88700
C404        C  0.13113768  0.94648870  0.40641781     0.87300
Mg405      Mg  0.07789825  0.87173717  0.30346521     1.58100
O406        O  0.18015936  0.87528793  0.39777388    -0.88500
O407        O  0.17612147  0.89353871  0.32187799    -0.75800
C408        C  0.04751115  0.77638132  0.43485115     0.92300
O409        O  0.06612236  0.93253809  0.36374539    -0.75600
O410        O  0.03603558  0.78919083  0.40841926    -0.83100
Mg411      Mg  0.11422933  0.94844562  0.33666050     1.58000
C412        C  0.18922588  0.80547216  0.47101602     0.92300
O413        O  0.15850674  0.96785377  0.30630535    -0.81400
H414        H  0.21420229  0.84865737  0.37270544    -0.06700
C415        C  0.09124223  0.86212530  0.44667228     0.87200
O416        O  0.10594118  0.82350369  0.31890643    -0.75900
O417        O  0.14276458  0.93669206  0.37947484    -0.88700
O418        O  0.19199708  0.83655564  0.46535421    -0.81500
C419        C  0.21621111  0.93853676  0.45030616     0.92400
C420        C  0.18941480  0.97405089  0.30918734     0.92200
Mg421      Mg  0.12735970  0.80292643  0.41710523     1.58000
O422        O  0.07789692  0.78125948  0.44439354    -0.81400
O423        O  0.17537601  0.82098142  0.39021850    -0.75600
O424        O  0.21228317  0.94819607  0.41986646    -0.81500
O425        O  0.08427230  0.96222067  0.29378639    -0.83200
O426        O  0.03190519  0.80684941  0.33501955    -0.81500
C427        C  0.19100708  0.84852986  0.38657167     0.86700
O428        O  0.09924768  0.81643122  0.37310962    -0.88600
O429        O  0.11814764  0.85204025  0.43524520    -0.88800
O430        O  0.06414213  0.85974311  0.43031884    -0.75800
Mg431      Mg  0.19251683  0.92026533  0.37043237     1.58000
O432        O  0.20364701  0.91173045  0.46129087    -0.83200
H433        H  0.14918687  0.87615791  0.28260089    -0.06900
O434        O  0.06090685  0.87886938  0.35372326    -0.88500
H435        H  0.02647663  0.90477442  0.37899975    -0.06700
H436        H  0.12437132  0.78387920  0.34473504    -0.06900
C437        C  0.04994725  0.90523133  0.36561415     0.86600
C438        C  0.14881167  0.88952681  0.30605140     0.87200
C439        C  0.11018488  0.80683095  0.34575232     0.87300
H440        H  0.09096438  0.87429516  0.47077279    -0.06900
O441        O  0.13326066  0.92919855  0.43300930    -0.75900
Mg442      Mg  0.04975808  0.83458862  0.38073112     1.58000
H443        H  0.11759968  0.96983329  0.40705713    -0.06900
C444        C  0.05753821  0.95118614  0.28135513     0.92300
O445        O  0.03471508  0.83607265  0.28791874    -0.83100
C446        C  0.02619932  0.80976495  0.30403886     0.92300
O447        O  0.20567632  0.96520336  0.33535576    -0.83100
Mg448      Mg  0.16097975  0.88104852  0.44711466     1.58200
O449        O  0.04825466  0.92063430  0.28497025    -0.81500
O450        O  0.16332158  0.78909029  0.46144031    -0.83200
C451        C  0.99815048  0.74897087  0.50771712     0.79800
N452        N  0.96941824  0.73841783  0.49313046    -0.78500
C453        C  0.96710447  0.73713941  0.45945984     0.82300
N454        N  0.99362551  0.74750651  0.44062854    -0.78400
C455        C  0.02254258  0.75830204  0.45522937     0.82400
N456        N  0.02466829  0.75873772  0.48892177    -0.80100
C457        C  0.25089201  0.00832580  0.50063269     0.79800
N458        N  0.23673299  0.99160351  0.47461436    -0.78500
C459        C  0.23442690  0.95792882  0.47570629     0.82300
N460        N  0.24528632  0.94158696  0.50335876    -0.78400
C461        C  0.25896217  0.95797088  0.52970765     0.82400
N462        N  0.26232329  0.99160882  0.52807508    -0.80100
C463        C  0.24288437  0.73744334  0.50353820     0.79800
N464        N  0.21708943  0.75430307  0.48959329    -0.78500
C465        C  0.21752770  0.78806254  0.48790207     0.82300
N466        N  0.24486113  0.80499391  0.50003933    -0.78400
C467        C  0.27127763  0.78783919  0.51372585     0.82400
N468        N  0.26971473  0.75411358  0.51555540    -0.80100
C469        C  0.00115449  0.74935685  0.23849026     0.79800
N470        N  0.98684250  0.72452197  0.25680451    -0.78500
C471        C  0.98504643  0.72730562  0.29046975     0.82300
N472        N  0.99686377  0.75559346  0.30541558    -0.78400
C473        C  0.01086476  0.78072039  0.28709495     0.82400
N474        N  0.01324212  0.77724395  0.25355735    -0.80100
C475        C  0.23560975  0.99895913  0.75190771     0.79800
N476        N  0.25240285  0.01116374  0.77862419    -0.78500
C477        C  0.28617202  0.00977594  0.77968578     0.82300
N478        N  0.30314087  0.99632230  0.75304230    -0.78400
C479        C  0.28611691  0.98417537  0.72586675     0.82400
N480        N  0.25239612  0.98549396  0.72578761    -0.80100
C481        C  0.75779052  0.24037114  0.99639658     0.79800
N482        N  0.78369687  0.25994816  0.00632405    -0.78500
C483        C  0.78078290  0.29362414  0.00512780     0.82300
N484        N  0.75176835  0.30731708  0.99352795    -0.78400
C485        C  0.72585181  0.28775477  0.98320914     0.82400
N486        N  0.72889673  0.25417036  0.98521153    -0.80100
C487        C  0.49489821  0.74350166  0.76107956     0.79800
N488        N  0.50505588  0.71609236  0.74412497    -0.78500
C489        C  0.50477420  0.71586608  0.71035293     0.82300
N490        N  0.49318488  0.74349633  0.69357088    -0.78400
C491        C  0.48241010  0.77108965  0.71087451     0.82400
N492        N  0.48394798  0.77090196  0.74461530    -0.80100
C493        C  0.49635706  0.75001066  0.49182591     0.79800
N494        N  0.46806074  0.75980940  0.50816575    -0.78500
C495        C  0.46714730  0.75874118  0.54194903     0.82300
N496        N  0.49442160  0.74775136  0.55870115    -0.78400
C497        C  0.52262679  0.73799023  0.54274571     0.82400
N498        N  0.52364387  0.73920428  0.50902009    -0.80100
C499        C  0.75054486  0.75962511  0.50563793     0.79800
N500        N  0.72165130  0.74513326  0.51614682    -0.78500
C501        C  0.71842392  0.71147638  0.51578864     0.82300
N502        N  0.74413353  0.69264143  0.50376084    -0.78400
C503        C  0.77307439  0.70710566  0.49277445     0.82400
N504        N  0.77619720  0.74074681  0.49398553    -0.80100
C505        C  0.48877497  0.49293241  0.75140676     0.79800
N506        N  0.50443309  0.52068382  0.73914905    -0.78500
C507        C  0.53815546  0.52098442  0.73672739     0.82300
N508        N  0.55558578  0.49380984  0.74697916    -0.78400
C509        C  0.54027170  0.46619233  0.75925362     0.82400
N510        N  0.50659153  0.46570004  0.76132696    -0.80100
C511        C  0.75954130  0.50112193  0.74601986     0.79800
N512        N  0.74187955  0.51146651  0.71907649    -0.78500
C513        C  0.70811333  0.50996417  0.71906815     0.82300
N514        N  0.69201731  0.49698049  0.74655525    -0.78400
C515        C  0.70991289  0.48592332  0.77373652     0.82400
N516        N  0.74363073  0.48861524  0.77324535    -0.80100
C517        C  0.75326355  0.49085145  0.50348122     0.79800
N518        N  0.73925643  0.50930329  0.52823469    -0.78500
C519        C  0.73732032  0.54288128  0.52507072     0.82300
N520        N  0.74855914  0.55763043  0.49635167    -0.78400
C521        C  0.76215891  0.53913259  0.47118225     0.82400
N522        N  0.76471687  0.50565539  0.47508692    -0.80100
C523        C  0.73771322  0.49833312  0.24820624     0.79800
N524        N  0.75411887  0.51223883  0.27456007    -0.78500
C525        C  0.78784158  0.51366317  0.27423358     0.82300
N526        N  0.80454732  0.50230112  0.24704062    -0.78400
C527        C  0.78847911  0.48900433  0.22038962     0.82400
N528        N  0.75478488  0.48643695  0.22121304    -0.80100
O529        O  0.12076846  0.35440942  0.56414262    -0.88700
C530        C  0.11008998  0.30959962  0.65333601     0.87300
Mg531      Mg  0.16514322  0.38133429  0.55313568     1.58100
O532        O  0.06348453  0.38350311  0.64571466    -0.88500
O533        O  0.06721855  0.36521002  0.56879634    -0.75800
C534        C  0.19614862  0.47017368  0.69195734     0.92300
O535        O  0.17626876  0.31989986  0.60993572    -0.75600
O536        O  0.21332447  0.46030303  0.66678346    -0.83100
Mg537      Mg  0.12795431  0.30448748  0.58257511     1.58000
C538        C  0.06259678  0.45622087  0.71943359     0.92300
O539        O  0.07899926  0.28457048  0.55459308    -0.81400
H540        H  0.03012506  0.41105585  0.62076793    -0.06700
C541        C  0.15071810  0.38975608  0.69453373     0.87200
O542        O  0.14024353  0.43109636  0.56694944    -0.75900
O543        O  0.09984951  0.31971192  0.62589328    -0.88700
O544        O  0.05291533  0.42569431  0.71565894    -0.81500
C545        C  0.02676650  0.31424165  0.69403347     0.92400
C546        C  0.04817762  0.28117118  0.56309746     0.92200
Mg547      Mg  0.11954942  0.45069825  0.66325427     1.58000
O548        O  0.16470469  0.46675635  0.69286757    -0.81400
O549        O  0.07083435  0.43707068  0.63611945    -0.75600
O550        O  0.03249836  0.31189785  0.66300726    -0.81500
O551        O  0.16384986  0.28816503  0.53927576    -0.83200
O552        O  0.22034545  0.44375172  0.58197277    -0.81500
C553        C  0.05358747  0.41043039  0.63408153     0.86700
O554        O  0.14849581  0.43713762  0.62084014    -0.88600
O555        O  0.12448026  0.40168083  0.68327306    -0.88800
O556        O  0.17834761  0.39166338  0.67882715    -0.75800
Mg557      Mg  0.05118801  0.33985981  0.61776308     1.58000
O558        O  0.03528324  0.34028534  0.71061025    -0.83200
H559        H  0.09526256  0.37863424  0.52867358    -0.14100
O560        O  0.18274554  0.37397542  0.60281643    -0.88500
H561        H  0.21597628  0.34606034  0.62750623    -0.06700
H562        H  0.12635533  0.47224345  0.59303769    -0.06900
C563        C  0.19280007  0.34681227  0.61370836     0.86600
C564        C  0.09457638  0.36613583  0.55262979     0.87200
C565        C  0.13834583  0.44806503  0.59372525     0.87300
H566        H  0.14993893  0.37646293  0.71806019    -0.06900
O567        O  0.10611852  0.32624425  0.68019540    -0.75900
Mg568      Mg  0.19736984  0.41733667  0.63074216     1.58000
H569        H  0.12344367  0.28615609  0.65442265    -0.06900
C570        C  0.19004172  0.30440475  0.53044220     0.92300
O571        O  0.21067570  0.40891865  0.53952149    -0.83100
C572        C  0.22472571  0.43450400  0.55146839     0.92300
O573        O  0.03609184  0.29539986  0.58859040    -0.83100
Mg574      Mg  0.07980244  0.37523802  0.69609299     1.58200
O575        O  0.19273581  0.33544411  0.53586817    -0.81500
O576        O  0.08932767  0.46707361  0.70649064    -0.83200
O577        O  0.59994867  0.12295353  0.31646798    -0.88700
C578        C  0.55090500  0.13452838  0.40441984     0.87300
Mg579      Mg  0.62896740  0.07965487  0.30711244     1.58100
O580        O  0.62304063  0.18404791  0.39736314    -0.88500
O581        O  0.60786363  0.17705057  0.32074928    -0.75800
C582        C  0.71718725  0.05713988  0.44845341     0.92300
O583        O  0.56689912  0.06704046  0.36264088    -0.75600
O584        O  0.70921038  0.04021172  0.42245598    -0.83100
Mg585      Mg  0.55016878  0.11405460  0.33345390     1.58000
C586        C  0.69271964  0.18962038  0.47168300     0.92300
O587        O  0.52961530  0.16158667  0.30308588    -0.81400
H588        H  0.64996987  0.21769251  0.37193914    -0.06700
C589        C  0.63142418  0.09722587  0.44768317     0.87200
O590        O  0.67685102  0.10776114  0.32171021    -0.75900
O591        O  0.56207201  0.14387251  0.37704691    -0.88700
O592        O  0.66251094  0.19916937  0.46648666    -0.81500
C593        C  0.55195418  0.22166853  0.44232404     0.92400
C594        C  0.52450312  0.19205774  0.31185640     0.92200
Mg595      Mg  0.69151801  0.13112732  0.41841304     1.58000
O596        O  0.71019123  0.08792815  0.45071278    -0.81400
O597        O  0.67694080  0.17845609  0.38933307    -0.75600
O598        O  0.54879917  0.21374346  0.41181318    -0.81500
O599        O  0.53776965  0.07699174  0.29003914    -0.83200
O600        O  0.69585787  0.03181331  0.33740521    -0.81500
C601        C  0.64983125  0.19462832  0.38603782     0.86700
O602        O  0.68136353  0.10139597  0.37593924    -0.88600
O603        O  0.64211882  0.12418847  0.43662802    -0.88800
O604        O  0.63650212  0.06949866  0.43278617    -0.75800
Mg605      Mg  0.57995567  0.19323433  0.36831939     1.58000
O606        O  0.57822374  0.21372233  0.45882526    -0.83200
H607        H  0.62453546  0.14928443  0.28175245    -0.06900
O608        O  0.62132874  0.06248626  0.35675631    -0.88500
H609        H  0.59416401  0.02890299  0.38203702    -0.06700
H610        H  0.71601031  0.12513866  0.34875889    -0.06900
C611        C  0.59433953  0.05169722  0.36748782     0.86600
C612        C  0.61092454  0.14958378  0.30510702     0.87200
C613        C  0.69261978  0.11162083  0.34897809     0.87300
H614        H  0.61684465  0.09728231  0.47045219    -0.06900
O615        O  0.56608232  0.14042784  0.43177613    -0.75900
Mg616      Mg  0.66543806  0.05174625  0.38572614     1.58000
H617        H  0.52782176  0.12049430  0.40507801    -0.06900
C618        C  0.55462192  0.05118894  0.28124943     0.92300
O619        O  0.65850976  0.03549515  0.29631311    -0.83100
C620        C  0.68636936  0.02581458  0.30726894     0.92300
O621        O  0.53656891  0.20424898  0.33822292    -0.83100
Mg622      Mg  0.61391006  0.16902282  0.44753198     1.58200
O623        O  0.58540952  0.04866636  0.28793576    -0.81500
O624        O  0.70361079  0.16205390  0.46106125    -0.83200
C625        C  0.49834968  0.25529046  0.50963507     0.79800
N626        N  0.47116519  0.26637553  0.49291971    -0.78500
C627        C  0.46948499  0.26367804  0.45926346     0.82300
N628        N  0.49603868  0.25006933  0.44223647    -0.78400
C629        C  0.52367818  0.23893104  0.45926349     0.82400
N630        N  0.52420622  0.24132389  0.49295770    -0.80100
O631        O  0.36747660  0.31189189  0.39610712    -0.88700
C632        C  0.36029004  0.40100209  0.44156279     0.87300
Mg633      Mg  0.40987762  0.30024611  0.36646950     1.58100
O634        O  0.30993212  0.39392330  0.37013093    -0.88500
O635        O  0.31342424  0.31693991  0.38864354    -0.75800
C636        C  0.43819264  0.43825012  0.27344000     0.92300
O637        O  0.42505346  0.35736783  0.42600457    -0.75600
O638        O  0.45434251  0.41183924  0.28177425    -0.83100
Mg639      Mg  0.37755893  0.33028200  0.44503197     1.58000
C640        C  0.30707120  0.46786538  0.29849179     0.92300
O641        O  0.32896875  0.30260062  0.46799424    -0.81400
H642        H  0.27529158  0.36883668  0.34438446    -0.06700
C643        C  0.39809473  0.44116592  0.35820811     0.87200
O644        O  0.38148311  0.31424529  0.31864452    -0.75900
O645        O  0.34914031  0.37380067  0.43184657    -0.88700
O646        O  0.29811957  0.46436965  0.32919827    -0.81500
C647        C  0.27738937  0.44279620  0.44089912     0.92400
C648        C  0.29848684  0.31170844  0.47302827     0.92200
Mg649      Mg  0.36284799  0.41081965  0.29974050     1.58000
O650        O  0.40730422  0.44122888  0.27994031    -0.81400
O651        O  0.31482359  0.38391677  0.31635772    -0.75600
O652        O  0.28280297  0.41170376  0.44290606    -0.81500
O653        O  0.41402970  0.28684867  0.45861119    -0.83200
O654        O  0.46162733  0.32747896  0.29896867    -0.81500
C655        C  0.29879436  0.38213291  0.34378963     0.86700
O656        O  0.39145696  0.36768469  0.31065193    -0.88600
O657        O  0.37083689  0.43019401  0.34852969    -0.88800
O658        O  0.42529884  0.42533496  0.35359044    -0.75800
Mg659      Mg  0.29949125  0.36625363  0.41439561     1.58000
O660        O  0.28512759  0.45941868  0.41460252    -0.83200
H661        H  0.34013727  0.27646907  0.37392858    -0.06900
O662        O  0.42908689  0.34958367  0.37169241    -0.88500
H663        H  0.46341167  0.37486800  0.39767850    -0.06700
H664        H  0.36559190  0.34012417  0.27804938    -0.06900
C665        C  0.44028154  0.36091635  0.39822450     0.86600
C666        C  0.34048973  0.30052354  0.38617417     0.87200
C667        C  0.37944757  0.34076723  0.30119852     0.87300
H668        H  0.39873659  0.46461506  0.37156519    -0.06900
O669        O  0.35611392  0.42796066  0.42511514    -0.75900
Mg670      Mg  0.44140171  0.37678653  0.32673417     1.58000
H671        H  0.37469917  0.40175107  0.46437340    -0.06900
C672        C  0.43991938  0.27798000  0.44187012     0.92300
O673        O  0.45204803  0.28623112  0.33537222    -0.83100
C674        C  0.46539214  0.29713269  0.30892925     0.92300
O675        O  0.28641656  0.33768252  0.45973679    -0.83100
Mg676      Mg  0.32762085  0.44406520  0.37754344     1.58200
O677        O  0.44179258  0.28290950  0.41060039    -0.81500
O678        O  0.33271558  0.45386137  0.28671674    -0.83200
C679        C  0.50699574  0.49563859  0.25089897     0.79800
N680        N  0.49063016  0.52332690  0.24044600    -0.78500
C681        C  0.45695344  0.52350389  0.23825033     0.82300
N682        N  0.43948908  0.49541856  0.24765162    -0.78400
C683        C  0.45607156  0.46739534  0.25858255     0.82400
N684        N  0.48985736  0.46777022  0.25961536    -0.80100
C685        C  0.50699275  0.74616809  0.99120566     0.79800
N686        N  0.48020555  0.73388413  0.00777918    -0.78500
C687        C  0.47921573  0.73402519  0.04151246     0.82300
N688        N  0.50618120  0.74627614  0.05882689    -0.78400
C689        C  0.53358327  0.75845792  0.04195898     0.82400
N690        N  0.53347984  0.75850281  0.00815439    -0.80100
O691        O  0.37676769  0.68249039  0.10172252    -0.88700
C692        C  0.36894421  0.59448293  0.05316790     0.87300
Mg693      Mg  0.41846863  0.69347490  0.13219071     1.58100
O694        O  0.31584704  0.60174493  0.12283126    -0.88500
O695        O  0.32230218  0.67831192  0.10577916    -0.75800
C696        C  0.44047130  0.55284251  0.22234579     0.92300
O697        O  0.43443890  0.63787084  0.07102859    -0.75600
O698        O  0.45742643  0.57909626  0.21500299    -0.83100
Mg699      Mg  0.38747998  0.66615191  0.05258879     1.58000
C700        C  0.30928992  0.52746080  0.19356945     0.92300
O701        O  0.33943470  0.69644232  0.03238624    -0.81400
H702        H  0.28168738  0.62765322  0.14848158    -0.06700
C703        C  0.40310373  0.55273734  0.13568248     0.87200
O704        O  0.38868467  0.67880373  0.17901176    -0.75900
O705        O  0.35852439  0.62170535  0.06354631    -0.88700
O706        O  0.30061608  0.53243932  0.16300956    -0.81500
C707        C  0.28212739  0.55486902  0.05068357     0.92400
C708        C  0.30996398  0.68622787  0.02473690     0.92200
Mg709      Mg  0.36693800  0.58202231  0.19403877     1.58000
O710        O  0.40991952  0.55036936  0.21443446    -0.81400
O711        O  0.31999135  0.61047959  0.17688077    -0.75600
O712        O  0.28981294  0.58542764  0.04763514    -0.81500
O713        O  0.42409612  0.71014463  0.04121440    -0.83200
O714        O  0.46716232  0.66401260  0.20014940    -0.81500
C715        C  0.30466067  0.61350372  0.14919474     0.86700
O716        O  0.39669513  0.62490118  0.18492093    -0.88600
O717        O  0.37570625  0.56371214  0.14507839    -0.88800
O718        O  0.43045558  0.56796429  0.14162450    -0.75800
Mg719      Mg  0.30835616  0.62968820  0.07824836     1.58000
O720        O  0.28946575  0.53853757  0.07731873    -0.83200
H721        H  0.34889154  0.71753894  0.12385258    -0.06900
O722        O  0.43717447  0.64409126  0.12569835    -0.88500
H723        H  0.47187212  0.61921568  0.09971735    -0.06700
H724        H  0.37096495  0.65183243  0.21819293    -0.06900
C725        C  0.44891460  0.63339090  0.09906485     0.86600
C726        C  0.34951047  0.69396333  0.11071797     0.87200
C727        C  0.38530945  0.65170602  0.19528686     0.87300
H728        H  0.40378658  0.52976464  0.12151299    -0.06900
O729        O  0.36282316  0.56715851  0.06841622    -0.75900
Mg730      Mg  0.44698793  0.61546237  0.17038073     1.58000
H731        H  0.38407217  0.59393949  0.03076735    -0.06900
C732        C  0.44987374  0.71844100  0.05832160     0.92300
O733        O  0.45997627  0.70629976  0.16442323    -0.83100
C734        C  0.47196982  0.69455332  0.19109416     0.92300
O735        O  0.30000199  0.65730295  0.03214620    -0.83100
Mg736      Mg  0.33229305  0.55154879  0.11518564     1.58200
O737        O  0.45167262  0.71205784  0.08931420    -0.81500
O738        O  0.33611628  0.53889998  0.20538529    -0.83200
C739        C  0.25514923  0.50713079  0.50370530     0.79800
N740        N  0.26414428  0.49274689  0.47430430    -0.78500
C741        C  0.26375563  0.45911779  0.47117752     0.82300
N742        N  0.25319032  0.44018620  0.49751926    -0.78400
C743        C  0.24364037  0.45455586  0.52696160     0.82400
N744        N  0.24487591  0.48817538  0.52995099    -0.80100
O745        O  0.60604704  0.87056048  0.18759425    -0.88700
C746        C  0.55967666  0.85979308  0.09923211     0.87300
Mg747      Mg  0.63346283  0.91456393  0.19806866     1.58100
O748        O  0.63233124  0.81134415  0.10633613    -0.88500
O749        O  0.61532771  0.81669283  0.18298708    -0.75800
C750        C  0.72514986  0.94106905  0.05940120     0.92300
O751        O  0.57252935  0.92593295  0.14175261    -0.75600
O752        O  0.71619583  0.95734399  0.08552089    -0.83100
Mg753      Mg  0.55646526  0.87802614  0.17033027     1.58000
C754        C  0.70358220  0.80814586  0.03228437     0.92300
O755        O  0.53776595  0.82904286  0.20032610    -0.81400
H756        H  0.65904717  0.77797111  0.13215288    -0.06700
C757        C  0.64115840  0.89890034  0.05709910     0.87200
O758        O  0.68243289  0.88788624  0.18447479    -0.75900
O759        O  0.56999506  0.84956620  0.12658765    -0.88700
O760        O  0.67304587  0.79871915  0.03592536    -0.81500
C761        C  0.56212566  0.77447541  0.05947719     0.92400
C762        C  0.53345325  0.79857011  0.19102681     0.92200
Mg763      Mg  0.70071950  0.86574631  0.08805646     1.58000
O764        O  0.71926586  0.91002645  0.05656642    -0.81400
O765        O  0.68582157  0.81803577  0.11626584    -0.75600
O766        O  0.55890527  0.78110851  0.09026418    -0.81500
O767        O  0.54181635  0.91419218  0.21370726    -0.83200
O768        O  0.69964152  0.96581204  0.16987192    -0.81500
C769        C  0.65895064  0.80120538  0.11833761     0.86700
O770        O  0.68868561  0.89518554  0.13047738    -0.88600
O771        O  0.65180878  0.87204132  0.06831909    -0.88800
O772        O  0.64497297  0.92651179  0.07253221    -0.75800
Mg773      Mg  0.58879677  0.80061653  0.13461949     1.58000
O774        O  0.58849437  0.78295700  0.04328150    -0.83200
H775        H  0.63049426  0.84453125  0.22252884    -0.06900
O776        O  0.62679453  0.93205000  0.14835779    -0.88500
H777        H  0.59913020  0.96484931  0.12273216    -0.06700
H778        H  0.72294329  0.87200375  0.15844243    -0.06900
C779        C  0.59968335  0.94203436  0.13722253     0.86600
C780        C  0.61742239  0.84410486  0.19891809     0.87200
C781        C  0.69924420  0.88489712  0.15766348     0.87300
H782        H  0.62761794  0.89881608  0.03374859    -0.06900
O783        O  0.57579811  0.85510965  0.07214636    -0.75900
Mg784      Mg  0.67157769  0.94449594  0.12070650     1.58000
H785        H  0.53655033  0.87368479  0.09839947    -0.06900
C786        C  0.55735389  0.94093873  0.22207321     0.92300
O787        O  0.66210964  0.95884629  0.21051054    -0.83100
C788        C  0.68929756  0.97082321  0.19993995     0.92300
O789        O  0.54500850  0.78756519  0.16388087    -0.83100
Mg790      Mg  0.62399298  0.82743048  0.05615184     1.58200
O791        O  0.58819708  0.94459621  0.21581702    -0.81500
O792        O  0.71479304  0.83431264  0.04589680    -0.83200
C793        C  0.75448820  0.74013364  0.99424990     0.79800
N794        N  0.72767681  0.75600806  0.00819169    -0.78500
C795        C  0.72894670  0.78951241  0.01302165     0.82300
N796        N  0.75674997  0.80648684  0.00348153    -0.78400
C797        C  0.78344091  0.79097571  0.98953893     0.82400
N798        N  0.78226924  0.75755486  0.98501039    -0.80100
O799        O  0.86912331  0.19091453  0.60246233    -0.88700
C800        C  0.86020576  0.10095545  0.55768557     0.87300
Mg801      Mg  0.91230445  0.20305421  0.63090445     1.58100
O802        O  0.80942601  0.10988646  0.62889372    -0.88500
O803        O  0.81495612  0.18586197  0.60948937    -0.75800
C804        C  0.93730554  0.06542687  0.72478398     0.92300
O805        O  0.92599383  0.14525160  0.57081344    -0.75600
O806        O  0.95418740  0.09108137  0.71536318    -0.83100
Mg807      Mg  0.87809565  0.17234011  0.55312117     1.58000
C808        C  0.80558700  0.03844416  0.70219580     0.92300
O809        O  0.82955097  0.20108711  0.53242579    -0.81400
H810        H  0.77578812  0.13666481  0.65430016    -0.06700
C811        C  0.89689779  0.06200901  0.64017845     0.87200
O812        O  0.88534436  0.19017578  0.67988481    -0.75900
O813        O  0.84987002  0.12845036  0.56740056    -0.88700
O814        O  0.79685772  0.04123548  0.67139715    -0.81500
C815        C  0.77467825  0.06000195  0.55951534     0.92400
C816        C  0.79966924  0.19074776  0.52688627     0.92200
Mg817      Mg  0.86281519  0.09417530  0.69885239     1.58000
O818        O  0.90630966  0.06307668  0.71879650    -0.81400
O819        O  0.81541134  0.12182529  0.68214171    -0.75600
O820        O  0.78155129  0.09066404  0.55533683    -0.81500
O821        O  0.91394490  0.21566675  0.53749226    -0.83200
O822        O  0.96462105  0.17512519  0.69645354    -0.81500
C823        C  0.79896600  0.12286582  0.65497880     0.86700
O824        O  0.89271864  0.13629259  0.68645975    -0.88600
O825        O  0.86995600  0.07328062  0.65045592    -0.88800
O826        O  0.92438991  0.07762332  0.64388419    -0.75800
Mg827      Mg  0.80019551  0.13638893  0.58396760     1.58000
O828        O  0.78262777  0.04476660  0.58657042    -0.83200
H829        H  0.84172239  0.22602357  0.62508247    -0.06900
O830        O  0.93072307  0.15333967  0.62503090    -0.88500
H831        H  0.96477658  0.12807237  0.59859903    -0.06700
H832        H  0.86959149  0.16438764  0.72066997    -0.06900
C833        C  0.94161155  0.14192418  0.59836213     0.86600
C834        C  0.84211109  0.20212203  0.61253698     0.87200
C835        C  0.88246427  0.16350418  0.69692273     0.87300
H836        H  0.89697487  0.03846941  0.62696804    -0.06900
O837        O  0.85492401  0.07416356  0.57412603    -0.75900
Mg838      Mg  0.94229743  0.12594058  0.66993479     1.58000
H839        H  0.87456907  0.09972101  0.53481552    -0.06900
C840        C  0.93963598  0.22475307  0.55419694     0.92300
O841        O  0.95654514  0.21731391  0.66070642    -0.83100
C842        C  0.96970084  0.20549271  0.68691616     0.92300
O843        O  0.78911987  0.16325785  0.53811082    -0.83100
Mg844      Mg  0.82622402  0.05966848  0.62233905     1.58200
O845        O  0.94155737  0.21976453  0.58542921    -0.81500
O846        O  0.83141438  0.05232317  0.71369400    -0.83200
C847        C  0.73598630  0.00436092  0.75308840     0.79800
N848        N  0.75288245  0.99086711  0.77935579    -0.78500
C849        C  0.78660360  0.99266754  0.78004595     0.82300
N850        N  0.80292681  0.00686450  0.75385604    -0.78400
C851        C  0.78631352  0.01968056  0.72724717     0.82400
N852        N  0.75258676  0.01884908  0.72709167    -0.80100
O853        O  0.87611051  0.81746912  0.89588274    -0.88700
C854        C  0.86565037  0.90504846  0.94418386     0.87300
Mg855      Mg  0.91908570  0.80884035  0.86623784     1.58100
O856        O  0.81376176  0.89828865  0.87365665    -0.88500
O857        O  0.82181218  0.82153509  0.88914426    -0.75800
C858        C  0.93814364  0.95057231  0.77612097     0.92300
O859        O  0.93217280  0.86393284  0.92774731    -0.75600
O860        O  0.95543951  0.92473712  0.78397714    -0.83100
Mg861      Mg  0.88567205  0.83415786  0.94535940     1.58000
C862        C  0.80656892  0.97343572  0.80407780     0.92300
O863        O  0.83832541  0.80310079  0.96589384    -0.81400
H864        H  0.78000915  0.87208158  0.84784692    -0.06700
C865        C  0.89961232  0.94969951  0.86196695     0.87200
O866        O  0.88991594  0.82288694  0.81877465    -0.75900
O867        O  0.85569020  0.87766988  0.93372885    -0.88700
O868        O  0.79843652  0.96900500  0.83489896    -0.81500
C869        C  0.77947812  0.94342117  0.94644262     0.92400
C870        C  0.80808671  0.81199962  0.97209777     0.92200
Mg871      Mg  0.86487328  0.91901630  0.80312772     1.58000
O872        O  0.90728003  0.95228701  0.78315662    -0.81400
O873        O  0.81851744  0.88939498  0.81969432    -0.75600
O874        O  0.78680947  0.91269701  0.94874896    -0.81500
O875        O  0.92346209  0.79100860  0.95753686    -0.83200
O876        O  0.96661982  0.84038255  0.79870596    -0.81500
C877        C  0.80286124  0.88647010  0.84723283     0.86700
O878        O  0.89571382  0.87715538  0.81303253    -0.88600
O879        O  0.87273996  0.93784107  0.85222010    -0.88800
O880        O  0.92743243  0.93513447  0.85681009    -0.75800
Mg881      Mg  0.80599310  0.86911341  0.91733915     1.58000
O882        O  0.78644606  0.96024253  0.92001514    -0.83200
H883        H  0.84947959  0.78278214  0.87175302    -0.06900
O884        O  0.93541840  0.85897268  0.87308111    -0.88500
H885        H  0.96926177  0.88437174  0.89962708    -0.06700
H886        H  0.87167735  0.84915103  0.77941709    -0.06900
C887        C  0.94668655  0.86952104  0.89990369     0.86600
C888        C  0.84932476  0.80606654  0.88541041     0.87200
C889        C  0.88560029  0.84987868  0.80252294     0.87300
H890        H  0.89937362  0.97280788  0.87592805    -0.06900
O891        O  0.85949279  0.93231878  0.92889695    -0.75900
Mg892      Mg  0.94528640  0.88808685  0.82843931     1.58000
H893        H  0.88052711  0.90577217  0.96669714    -0.06900
C894        C  0.94971811  0.78350966  0.94068753     0.92300
O895        O  0.96218252  0.79851152  0.83536065    -0.83100
C896        C  0.97295371  0.81030899  0.80817532     0.92300
O897        O  0.79616621  0.83922180  0.96166426    -0.83100
Mg898      Mg  0.82938818  0.94860746  0.88225830     1.58200
O899        O  0.95184307  0.79057314  0.90981674    -0.81500
O900        O  0.83234839  0.96056815  0.79136568    -0.83200
O901        O  0.13383972  0.69146290  0.89354233    -0.88700
C902        C  0.13863635  0.60276789  0.94177243     0.87300
Mg903      Mg  0.09170037  0.70420205  0.86417960     1.58100
O904        O  0.18850827  0.60543691  0.86917448    -0.88500
O905        O  0.18728595  0.68265978  0.88478543    -0.75800
C906        C  0.05713382  0.56495684  0.77672091     0.92300
O907        O  0.07489546  0.64913335  0.92585974    -0.75600
O908        O  0.04127568  0.59151354  0.78490535    -0.83100
Mg909      Mg  0.12361191  0.67474083  0.94308153     1.58000
C910        C  0.18713596  0.52968415  0.79917749     0.92300
O911        O  0.17312673  0.70122766  0.96439023    -0.81400
H912        H  0.22440350  0.62762443  0.84229733    -0.06700
C913        C  0.09815106  0.56231093  0.86061619     0.87200
O914        O  0.11908554  0.68749120  0.81657549    -0.75900
O915        O  0.15033148  0.62930241  0.93085424    -0.88700
O916        O  0.19569571  0.53397322  0.82990076    -0.81500
C917        C  0.22234989  0.55758800  0.94043231     0.92400
C918        C  0.20310691  0.69055491  0.96880680     0.92200
Mg919      Mg  0.13414453  0.58944834  0.80019838     1.58000
O920        O  0.08810421  0.56192976  0.78238969    -0.81400
O921        O  0.18383995  0.61403943  0.81515698    -0.75600
O922        O  0.21747613  0.58880033  0.94332250    -0.81500
O923        O  0.08915213  0.72039426  0.95568104    -0.83200
O924        O  0.03870703  0.67671858  0.79851894    -0.81500
C925        C  0.20015232  0.61573401  0.84236198     0.86700
O926        O  0.10750620  0.63410221  0.81088737    -0.88600
O927        O  0.12571702  0.57144610  0.84979778    -0.88800
O928        O  0.07168480  0.57941424  0.85620783    -0.75800
Mg929      Mg  0.20008058  0.63400613  0.91241192     1.58000
O930        O  0.21224229  0.54157698  0.91455124    -0.83200
H931        H  0.16270593  0.72401081  0.86887296    -0.06900
O932        O  0.07076720  0.65582314  0.87143956    -0.88500
H933        H  0.03551968  0.63280347  0.89845974    -0.06700
H934        H  0.13398697  0.65962220  0.77696634    -0.06900
C935        C  0.05926357  0.64568751  0.89838186     0.86600
C936        C  0.16121548  0.70061979  0.88233571     0.87200
C937        C  0.12027870  0.66026290  0.80024774     0.87300
H938        H  0.09663169  0.53940467  0.87491223    -0.06900
O939        O  0.14192876  0.57518924  0.92624750    -0.75900
Mg940      Mg  0.05704530  0.62763383  0.82787653     1.58000
H941        H  0.12465607  0.60313043  0.96490749    -0.06900
C942        C  0.06350446  0.73020791  0.93910739     0.92300
O943        O  0.04983626  0.71906401  0.83306576    -0.83100
C944        C  0.03605772  0.70754627  0.80719501     0.92300
O945        O  0.21364627  0.66392061  0.95562822    -0.83100
Mg946      Mg  0.16876646  0.55674050  0.87846080     1.58200
O947        O  0.06088315  0.72437318  0.90806768    -0.81500
O948        O  0.16201486  0.54399994  0.78657977    -0.83200
C949        C  0.00669614  0.76085525  0.73748864     0.79800
N950        N  0.99246659  0.78667331  0.75447090    -0.78500
C951        C  0.99182613  0.78595150  0.78824595     0.82300
N952        N  0.00443297  0.75893597  0.80443757    -0.78400
C953        C  0.01785888  0.73274581  0.78771797     0.82400
N954        N  0.01948226  0.73396369  0.75401234    -0.80100
C955        C  0.99072475  0.50561601  0.75079705     0.79800
N956        N  0.00620611  0.53332844  0.76282878    -0.78500
C957        C  0.03988877  0.53577199  0.76178139     0.82300
N958        N  0.05791694  0.50977154  0.74912696    -0.78400
C959        C  0.04256507  0.48162652  0.73737751     0.82400
N960        N  0.00877201  0.47994158  0.73780654    -0.80100
C961        C  0.25898093  0.48967154  0.75715919     0.79800
N962        N  0.24510332  0.47915823  0.72802191    -0.78500
C963        C  0.21217436  0.48404528  0.72225954     0.82300
N964        N  0.19324890  0.49906307  0.74630294    -0.78400
C965        C  0.20707928  0.50945150  0.77569963     0.82400
N966        N  0.24015658  0.50512299  0.78073269    -0.80100
C967        C  0.74763239  0.99052002  0.50477617     0.79800
N968        N  0.73443850  0.00684686  0.47825613    -0.78500
C969        C  0.73348345  0.04055532  0.47744999     0.82300
N970        N  0.74566819  0.05814367  0.50422514    -0.78400
C971        C  0.75882496  0.04167252  0.53133406     0.82400
N972        N  0.75991975  0.00782010  0.53113564    -0.80100
C973        C  0.00152865  0.25020956  0.48978239     0.79800
N974        N  0.97254717  0.23970007  0.50413254    -0.78500
C975        C  0.96923608  0.23985643  0.53781736     0.82300
N976        N  0.99486979  0.25165893  0.55682909    -0.78400
C977        C  0.02390650  0.26250272  0.54258048     0.82400
N978        N  0.02717479  0.26149095  0.50893256    -0.80100
C979        C  0.00575561  0.25135660  0.75870373     0.79800
N980        N  0.01502254  0.28049865  0.74394020    -0.78500
C981        C  0.01221841  0.28445976  0.71058541     0.82300
N982        N  0.99925674  0.25897959  0.69211076    -0.78400
C983        C  0.98931777  0.22971146  0.70676830     0.82400
N984        N  0.99282740  0.22591616  0.74027092    -0.80100
C985        C  0.50666830  0.74427094  0.26135973     0.79800
N986        N  0.49225734  0.71840472  0.24455223    -0.78500
C987        C  0.49072224  0.71934173  0.21080800     0.82300
N988        N  0.50246896  0.74674059  0.19453536    -0.78400
C989        C  0.51614311  0.77298032  0.21105349     0.82400
N990        N  0.51878279  0.77147318  0.24471853    -0.80100
C991        C  0.75787142  0.00511412  0.25238091     0.79800
N992        N  0.74072696  0.01336687  0.28064990    -0.78500
C993        C  0.70719586  0.00968215  0.28154601     0.82300
N994        N  0.69142997  0.99754726  0.25413110    -0.78400
C995        C  0.70817426  0.98901869  0.22586744     0.82400
N996        N  0.74173383  0.99294309  0.22493077    -0.80100
C997        C  0.25526900  0.75799513  0.00500715     0.79800
N998        N  0.22798538  0.74217740  0.99222094    -0.78500
C999        C  0.22880839  0.70869596  0.98783557     0.82300
N1000       N  0.25678526  0.69165896  0.99655541    -0.78400
C1001       C  0.28405417  0.70722239  0.00930985     0.82400
N1002       N  0.28331573  0.74070372  0.01336867    -0.80100
C1003       C  0.74549421  0.26055344  0.49984515     0.79800
N1004       N  0.71786039  0.24363423  0.48923654    -0.78500
C1005       C  0.71841983  0.20981315  0.48856971     0.82300
N1006       N  0.74640357  0.19365599  0.49874421    -0.78400
C1007       C  0.77392648  0.21024003  0.50937512     0.82400
N1008       N  0.77347285  0.24396125  0.50979494    -0.80100
C1009       C  0.23812847  0.50277568  0.24748138     0.79800
N1010       N  0.25510789  0.51272156  0.21959928    -0.78500
C1011       C  0.28875239  0.50993233  0.21865392     0.82300
N1012       N  0.30478798  0.49707058  0.24559691    -0.78400
C1013       C  0.28817501  0.48701331  0.27343764     0.82400
N1014       N  0.25456570  0.48997843  0.27443656    -0.80100
C1015       C  0.25155633  0.48821781  0.99431605     0.79800
N1016       N  0.23827777  0.50566556  0.96853573    -0.78500
C1017       C  0.23875903  0.53946545  0.96858150     0.82300
N1018       N  0.25241493  0.55582795  0.99549520    -0.78400
C1019       C  0.26555946  0.53811032  0.02185566     0.82400
N1020       N  0.26524548  0.50433422  0.02069912    -0.80100
C1021       C  0.48812599  0.99465448  0.25153358     0.79800
N1022       N  0.50432312  0.02119328  0.26473032    -0.78500
C1023       C  0.53800375  0.02254820  0.26449174     0.82300
N1024       N  0.55563326  0.99624799  0.25127874    -0.78400
C1025       C  0.53919379  0.96915086  0.23810260     0.82400
N1026       N  0.50538820  0.96887537  0.23808763    -0.80100
C1027       C  0.49734558  0.24375266  0.24044018     0.79800
N1028       N  0.50771754  0.21639932  0.25784688    -0.78500
C1029       C  0.50633906  0.21661545  0.29156680     0.82300
N1030       N  0.49435738  0.24412160  0.30732809    -0.78400
C1031       C  0.48389249  0.27147432  0.29022885     0.82400
N1032       N  0.48562271  0.27137315  0.25649112    -0.80100
C1033       C  0.24964108  0.23908753  0.50263853     0.79800
N1034       N  0.27602103  0.25763127  0.49186607    -0.78500
C1035       C  0.27411012  0.29140641  0.49211272     0.82300
N1036       N  0.24563470  0.30625094  0.50371061    -0.78400
C1037       C  0.21928565  0.28773154  0.51499029     0.82400
N1038       N  0.22134095  0.25405277  0.51394236    -0.80100
C1039       C  0.00759226  0.75652184  0.00769558     0.79800
N1040       N  0.03486964  0.74644374  0.99043747    -0.78500
C1041       C  0.03485706  0.74636493  0.95665302     0.82300
N1042       N  0.00690966  0.75745577  0.94002304    -0.78400
C1043       C  0.97929086  0.76812545  0.95752068     0.82400
N1044       N  0.97988539  0.76698399  0.99134563    -0.80100
C1045       C  0.75562568  0.00997902  0.00578272     0.79800
N1046       N  0.76662464  0.99385988  0.97817555    -0.78500
C1047       C  0.76473780  0.96016773  0.97615921     0.82300
N1048       N  0.75216981  0.94248374  0.00283177    -0.78400
C1049       C  0.74115106  0.95886972  0.03090191     0.82400
N1050       N  0.74276759  0.99260568  0.03184827    -0.80100
C1051       C  0.00510549  0.00897378  0.75110026     0.79800
N1052       N  0.98819967  0.03653523  0.74136850    -0.78500
C1053       C  0.95444412  0.03644766  0.74060801     0.82300
N1054       N  0.93754070  0.00820958  0.75075439    -0.78400
C1055       C  0.95483020  0.98032011  0.76098223     0.82400
N1056       N  0.98858251  0.98099961  0.76047042    -0.80100
C1057       C  0.65261805  0.51150405  0.25623738     0.29400
C1058       C  0.62373462  0.52982283  0.26298194    -0.37000
C1059       C  0.59370416  0.51291974  0.25780268     0.15400
C1060       C  0.59216701  0.48000819  0.24751111     0.21200
C1061       C  0.62108939  0.46181432  0.24028210    -0.35100
C1062       C  0.65115357  0.47901199  0.24466893     0.15300
O1063       O  0.68334597  0.52244930  0.25924648    -0.27100
C1064       C  0.70161359  0.49689676  0.24882516     0.05000
C1065       C  0.68312768  0.46922763  0.23922708    -0.32000
O1066       O  0.56132953  0.46921402  0.24449015    -0.23800
C1067       C  0.54315144  0.49577172  0.25237180    -0.03800
C1068       C  0.56180939  0.52370430  0.26073973    -0.18200
H1069       H  0.62462252  0.55551437  0.27131371     0.19700
H1070       H  0.62018950  0.43628576  0.23147880     0.18100
H1071       H  0.69202250  0.44536847  0.23018336     0.18100
H1072       H  0.55307499  0.54827409  0.26785255     0.13900
C1073       C  0.76390695  0.34499568  0.49840478     0.29400
C1074       C  0.78375219  0.37314535  0.49282941    -0.37000
C1075       C  0.76876354  0.40371505  0.50009183     0.15400
C1076       C  0.73678816  0.40637819  0.51285501     0.21200
C1077       C  0.71678229  0.37817714  0.51814457    -0.35100
C1078       C  0.73146986  0.34760132  0.50994761     0.15300
O1079       O  0.77289818  0.31398193  0.49311933    -0.27100
C1080       C  0.74568304  0.29667231  0.50066569     0.05000
C1081       C  0.71897324  0.31607986  0.51110479    -0.32000
O1082       O  0.72760320  0.43757356  0.51706927    -0.23800
C1083       C  0.75383505  0.45481829  0.50632838    -0.03800
C1084       C  0.78014347  0.43523676  0.49538412    -0.18200
H1085       H  0.80884401  0.37135366  0.48292570     0.19700
H1086       H  0.69140767  0.38001549  0.52724975     0.18100
H1087       H  0.69446743  0.30802566  0.51923695     0.18100
H1088       H  0.80377074  0.44314627  0.48482619     0.13900
C1089       C  0.90596656  0.50055419  0.73303454     0.29400
C1090       C  0.87761485  0.49687759  0.71295854    -0.37000
C1091       C  0.84695879  0.50114321  0.72920272     0.15400
C1092       C  0.84440055  0.50786708  0.76296544     0.21200
C1093       C  0.87273103  0.51233806  0.78283790    -0.35100
C1094       C  0.90335963  0.50866805  0.76648730     0.15300
O1095       O  0.93715991  0.49746251  0.72319968    -0.27100
C1096       C  0.95451525  0.50421804  0.75060842     0.05000
C1097       C  0.93496325  0.51161519  0.77822352    -0.32000
O1098       O  0.81327658  0.50888786  0.77335226    -0.23800
C1099       C  0.79578358  0.50335190  0.74577655    -0.03800
C1100       C  0.81527817  0.49869554  0.71745351    -0.18200
H1101       H  0.87933303  0.49092777  0.68665139     0.19700
H1102       H  0.87100706  0.51801135  0.80921162     0.18100
H1103       H  0.94295671  0.51806451  0.80322254     0.18100
H1104       H  0.80724574  0.49308138  0.69227373     0.13900
C1105       C  0.40430474  0.47418380  0.75476733     0.29400
C1106       C  0.37573070  0.45469432  0.75007525    -0.37000
C1107       C  0.34546401  0.47048255  0.75713682     0.15400
C1108       C  0.34352220  0.50284540  0.76899715     0.21200
C1109       C  0.37210370  0.52236969  0.77358647    -0.35100
C1110       C  0.40229761  0.50693098  0.76548583     0.15300
O1111       O  0.43509697  0.46490013  0.74848825    -0.27100
C1112       C  0.45275949  0.49226262  0.75459518     0.05000
C1113       C  0.43383691  0.51926693  0.76509490    -0.32000
O1114       O  0.31259938  0.51318129  0.77221837    -0.23800
C1115       C  0.29473204  0.48731585  0.76177943    -0.03800
C1116       C  0.31366864  0.46004720  0.75204838    -0.18200
H1117       H  0.37695897  0.42946839  0.74046972     0.19700
H1118       H  0.37077770  0.54813378  0.78162451     0.18100
H1119       H  0.44219962  0.54408849  0.77180048     0.18100
H1120       H  0.30523466  0.43662531  0.74151108     0.13900
C1121       C  0.76412034  0.90556262  0.51309010     0.29400
C1122       C  0.78117684  0.87692730  0.52371570    -0.37000
C1123       C  0.76781360  0.84648647  0.51288356     0.15400
C1124       C  0.73937692  0.84449588  0.49344734     0.21200
C1125       C  0.72290973  0.87304319  0.48214046    -0.35100
C1126       C  0.73647883  0.90335593  0.49259449     0.15300
O1127       O  0.77156313  0.93664496  0.52077441    -0.27100
C1128       C  0.74862943  0.95425264  0.50452858     0.05000
C1129       C  0.72628722  0.93495653  0.48649699    -0.32000
O1130       O  0.72977772  0.81361846  0.48823429    -0.23800
C1131       C  0.75265337  0.79567828  0.50400357    -0.03800
C1132       C  0.77720480  0.81454130  0.51950785    -0.18200
H1133       H  0.80293106  0.87826393  0.53965711     0.19700
H1134       H  0.70072466  0.87169154  0.46681384     0.18100
H1135       H  0.70538416  0.94309124  0.47143797     0.18100
H1136       H  0.79791733  0.80595963  0.53458191     0.13900
C1137       C  0.51625639  0.75288062  0.40749497     0.29400
C1138       C  0.53669862  0.75726527  0.37943714    -0.37000
C1139       C  0.52149628  0.75100109  0.34865399     0.15400
C1140       C  0.48875516  0.74041901  0.34585507     0.21200
C1141       C  0.46820804  0.73666017  0.37381324    -0.35100
C1142       C  0.48314002  0.74366243  0.40446122     0.15300
O1143       O  0.52532192  0.75659091  0.43878699    -0.27100
C1144       C  0.49744274  0.75035186  0.45567287     0.05000
C1145       C  0.47033452  0.74240996  0.43576238    -0.32000
O1146       O  0.47970480  0.73566891  0.31476135    -0.23800
C1147       C  0.50675014  0.74389260  0.29750245    -0.03800
C1148       C  0.53355395  0.75380563  0.31705114    -0.18200
H1149       H  0.56248166  0.76505549  0.38146513     0.19700
H1150       H  0.44237770  0.72896866  0.37177984     0.18100
H1151       H  0.44529341  0.73556273  0.44336743     0.18100
H1152       H  0.55807196  0.76197228  0.30908513     0.13900
C1153       C  0.50869427  0.75830947  0.84508789     0.29400
C1154       C  0.52195629  0.77459149  0.87296458    -0.37000
C1155       C  0.51449492  0.75996429  0.90380081     0.15400
C1156       C  0.49473543  0.73179114  0.90691330     0.21200
C1157       C  0.48197162  0.71523063  0.87906705    -0.35100
C1158       C  0.49002665  0.72940065  0.84826043     0.15300
O1159       O  0.51243556  0.76750544  0.81381416    -0.27100
C1160       C  0.49648870  0.74380632  0.79707302     0.05000
C1161       C  0.48220702  0.71935685  0.81697057    -0.32000
O1162       O  0.48971689  0.72322237  0.93811974    -0.23800
C1163       C  0.50695658  0.74579803  0.95507273    -0.03800
C1164       C  0.52312902  0.76920810  0.93521106    -0.18200
H1165       H  0.53697253  0.79696773  0.87076031     0.19700
H1166       H  0.46686151  0.69290899  0.88128353     0.18100
H1167       H  0.46794955  0.69766837  0.80941590     0.18100
H1168       H  0.53805206  0.79039937  0.94287597     0.13900
C1169       C  0.77320246  0.09457835  0.99821975     0.29400
C1170       C  0.79067440  0.12286547  0.98735794    -0.37000
C1171       C  0.77605011  0.15353521  0.99529878     0.15400
C1172       C  0.74598921  0.15607371  0.01212016     0.21200
C1173       C  0.72899497  0.12785190  0.02374088    -0.35100
C1174       C  0.74394001  0.09725223  0.01636515     0.15300
O1175       O  0.78135453  0.06339038  0.99217293    -0.27100
C1176       C  0.75734692  0.04611286  0.00722448     0.05000
C1177       C  0.73354255  0.06570963  0.02294000    -0.32000
O1178       O  0.73569746  0.18705805  0.01476300    -0.23800
C1179       C  0.75980374  0.20446638  0.00008681    -0.03800
C1180       C  0.78573949  0.18516672  0.98774943    -0.18200
H1181       H  0.81364273  0.12107043  0.97320615     0.19700
H1182       H  0.70550206  0.12961146  0.03699344     0.18100
H1183       H  0.71120375  0.05781982  0.03601768     0.18100
H1184       H  0.80767742  0.19321784  0.97409270     0.13900
C1185       C  0.15107971  0.01652123  0.76053443     0.29400
C1186       C  0.12294797  0.03376624  0.77197400    -0.37000
C1187       C  0.09225327  0.02154413  0.76077146     0.15400
C1188       C  0.08947338  0.99387914  0.74031645     0.21200
C1189       C  0.11758705  0.97709694  0.72833245    -0.35100
C1190       C  0.14825587  0.98967077  0.73905386     0.15300
O1191       O  0.18225081  0.02319672  0.76824710    -0.27100
C1192       C  0.19941016  0.00064343  0.75105782     0.05000
C1193       C  0.17969124  0.97924177  0.73230346    -0.32000
O1194       O  0.05832550  0.98577218  0.73427523    -0.23800
C1195       C  0.04115347  0.00892348  0.75051487    -0.03800
C1196       C  0.06071133  0.03202205  0.76726883    -0.18200
H1197       H  0.12485351  0.05501264  0.78854730     0.19700
H1198       H  0.11566700  0.95561621  0.71206278     0.18100
H1199       H  0.18742274  0.95871412  0.71651360     0.18100
H1200       H  0.05276720  0.05275208  0.78267936     0.13900
C1201       C  0.02046281  0.75210287  0.15399729     0.29400
C1202       C  0.04015287  0.75863741  0.12583675    -0.37000
C1203       C  0.02403568  0.75528947  0.09507769     0.15400
C1204       C  0.99072575  0.74671553  0.09228459     0.21200
C1205       C  0.97129353  0.73932531  0.12039989    -0.35100
C1206       C  0.98756534  0.74206805  0.15112694     0.15300
O1207       O  0.02980138  0.75552787  0.18524901    -0.27100
C1208       C  0.00279102  0.74677779  0.20240745     0.05000
C1209       C  0.97580451  0.73790941  0.18266414    -0.32000
O1210       O  0.98037471  0.74661237  0.06116178    -0.23800
C1211       C  0.00754415  0.75464721  0.04391954    -0.03800
C1212       C  0.03554839  0.76010418  0.06354455    -0.18200
H1213       H  0.06597746  0.76633255  0.12779693     0.19700
H1214       H  0.94524313  0.73241120  0.11847234     0.18100
H1215       H  0.95081051  0.73112301  0.19046702     0.18100
H1216       H  0.06046443  0.76711806  0.05569516     0.13900
C1217       C  0.23995092  0.59139145  0.49239255     0.29400
C1218       C  0.22762608  0.61950324  0.47586654    -0.37000
C1219       C  0.23426246  0.65004170  0.49119959     0.15400
C1220       C  0.25232453  0.65281435  0.52045526     0.21200
C1221       C  0.26389104  0.62455698  0.53752410    -0.35100
C1222       C  0.25674414  0.59388689  0.52243729     0.15300
O1223       O  0.23765785  0.56052441  0.48178178    -0.27100
C1224       C  0.25263548  0.54308363  0.50557275     0.05000
C1225       C  0.26473744  0.56224509  0.53173800    -0.32000
O1226       O  0.25760071  0.68407893  0.52893454    -0.23800
C1227       C  0.24214152  0.70123882  0.50512114    -0.03800
C1228       C  0.22693630  0.68149071  0.48115561    -0.18200
H1229       H  0.21433592  0.61771835  0.45241994     0.19700
H1230       H  0.27793645  0.62639082  0.56052191     0.18100
H1231       H  0.27811593  0.55409038  0.55375782     0.18100
H1232       H  0.21373739  0.68926055  0.45888188     0.13900
C1233       C  0.23787570  0.09339055  0.49147128     0.29400
C1234       C  0.21929453  0.12211419  0.48478397    -0.37000
C1235       C  0.23529840  0.15230267  0.49162469     0.15400
C1236       C  0.26771394  0.15422023  0.50327016     0.21200
C1237       C  0.28623938  0.12541436  0.51023630    -0.35100
C1238       C  0.26984367  0.09512678  0.50432586     0.15300
O1239       O  0.22733523  0.06256424  0.48796467    -0.27100
C1240       C  0.25258318  0.04445191  0.49933059     0.05000
C1241       C  0.27970097  0.06317257  0.51000090    -0.32000
O1242       O  0.27750792  0.18520306  0.50811698    -0.23800
C1243       C  0.25073747  0.20299372  0.50009874    -0.03800
C1244       C  0.22374207  0.18399409  0.48975220    -0.18200
H1245       H  0.19390459  0.12097453  0.47567070     0.19700
H1246       H  0.31127476  0.12654362  0.52030251     0.18100
H1247       H  0.30309998  0.05446326  0.52031489     0.18100
H1248       H  0.19923996  0.19239372  0.48208197     0.13900
C1249       C  0.01797118  0.74972743  0.59188066     0.29400
C1250       C  0.03669423  0.74246436  0.62038791    -0.37000
C1251       C  0.02239678  0.75234434  0.65062988     0.15400
C1252       C  0.99229449  0.76911224  0.65260407     0.21200
C1253       C  0.97350117  0.77621622  0.62412085    -0.35100
C1254       C  0.98729270  0.76540104  0.59398816     0.15300
O1255       O  0.02603837  0.74191906  0.56107077    -0.27100
C1256       C  0.99983188  0.75206032  0.54361095     0.05000
C1257       C  0.97490627  0.76673975  0.56258133    -0.32000
O1258       O  0.98327720  0.77524520  0.68351748    -0.23800
C1259       C  0.00762186  0.76170207  0.70137051    -0.03800
C1260       C  0.03262601  0.74705624  0.68242069    -0.18200
H1261       H  0.06023388  0.72928375  0.61913913     0.19700
H1262       H  0.94943079  0.78839145  0.62546618     0.18100
H1263       H  0.95142035  0.77720819  0.55429974     0.18100
H1264       H  0.05471260  0.73401004  0.69090428     0.13900
C1265       C  0.02431914  0.25793485  0.34465524     0.29400
C1266       C  0.04146721  0.24870566  0.37367224    -0.37000
C1267       C  0.02362586  0.25208707  0.40353174     0.15400
C1268       C  0.99099350  0.26320530  0.40464744     0.21200
C1269       C  0.97417141  0.27329659  0.37574438    -0.35100
C1270       C  0.99222737  0.27051447  0.34596247     0.15300
O1271       O  0.03519547  0.25437738  0.31386754    -0.27100
C1272       C  0.01006361  0.26560071  0.29542570     0.05000
C1273       C  0.98278786  0.27630505  0.31392661    -0.32000
O1274       O  0.97866202  0.26309048  0.43508028    -0.23800
C1275       C  0.00390670  0.25233169  0.45362805    -0.03800
C1276       C  0.03261678  0.24529228  0.43552514    -0.18200
H1277       H  0.06663944  0.23893080  0.37294119     0.19700
H1278       H  0.94866420  0.28213801  0.37637665     0.18100
H1279       H  0.95876501  0.28477254  0.30494996     0.18100
H1280       H  0.05640388  0.23628715  0.44463043     0.13900
C1281       C  0.00442104  0.26664432  0.84358540     0.29400
C1282       C  0.00007403  0.28645702  0.87181995    -0.37000
C1283       C  0.00542463  0.27055042  0.90224799     0.15400
C1284       C  0.01507605  0.23751745  0.90488243     0.21200
C1285       C  0.01896371  0.21739404  0.87644620    -0.35100
C1286       C  0.01290350  0.23325094  0.84579054     0.15300
O1287       O  0.00090055  0.27685542  0.81276356    -0.27100
C1288       C  0.00657696  0.24967674  0.79485250     0.05000
C1289       C  0.01395596  0.22152794  0.81383609    -0.32000
O1290       O  0.01847960  0.22801787  0.93619301    -0.23800
C1291       C  0.01039503  0.25527881  0.95332310    -0.03800
C1292       C  0.00193974  0.28237792  0.93364025    -0.18200
H1293       H  0.99276980  0.31243205  0.87014969     0.19700
H1294       H  0.02584638  0.19131995  0.87812623     0.18100
H1295       H  0.01998269  0.19660233  0.80532268     0.18100
H1296       H  0.99394962  0.30699916  0.94143149     0.13900
C1297       C  0.34269994  0.99944431  0.26763534     0.29400
C1298       C  0.37156560  0.00527929  0.28625783    -0.37000
C1299       C  0.40159180  0.99963769  0.26945873     0.15400
C1300       C  0.40313866  0.98828046  0.23688363     0.21200
C1301       C  0.37426711  0.98297473  0.21808888    -0.35100
C1302       C  0.34423996  0.98934364  0.23465053     0.15300
O1303       O  0.31192807  0.00331566  0.27823421    -0.27100
C1304       C  0.29378113  0.99620555  0.25149082     0.05000
C1305       C  0.31236656  0.98751700  0.22359405    -0.32000
O1306       O  0.43393944  0.98427984  0.22635018    -0.23800
C1307       C  0.45206418  0.99377921  0.25235055    -0.03800
C1308       C  0.43346886  0.00377057  0.27978495    -0.18200
H1309       H  0.37067259  0.01388245  0.31185913     0.19700
H1310       H  0.37516659  0.97478456  0.19234516     0.18100
H1311       H  0.30358909  0.98056814  0.19899300     0.18100
H1312       H  0.44225027  0.01261161  0.30376278     0.13900
C1313       C  0.24346223  0.90314790  0.01967443     0.29400
C1314       C  0.22711600  0.87418918  0.03048087    -0.37000
C1315       C  0.24140555  0.84415747  0.01998053     0.15400
C1316       C  0.27028176  0.84281853  0.00104072     0.21200
C1317       C  0.28642892  0.87170854  0.99005284    -0.35100
C1318       C  0.27165646  0.90166647  0.99976729     0.15300
O1319       O  0.23371930  0.93394436  0.02520945    -0.27100
C1320       C  0.25565122  0.95208540  0.00814126     0.05000
C1321       C  0.27978539  0.93349283  0.99177770    -0.32000
O1322       O  0.27919755  0.81218107  0.99388406    -0.23800
C1323       C  0.25543462  0.79387104  0.00788399    -0.03800
C1324       C  0.23110057  0.81215426  0.02434231    -0.18200
H1325       H  0.20446805  0.87504199  0.04522447     0.19700
H1326       H  0.30845380  0.87086253  0.97438602     0.18100
H1327       H  0.30005896  0.94219422  0.97608703     0.18100
H1328       H  0.20921537  0.80314422  0.03745960     0.13900
C1329       C  0.23750866  0.34218325  0.98857362     0.29400
C1330       C  0.22007298  0.37082365  0.97880287    -0.37000
C1331       C  0.23589599  0.40117365  0.98570755     0.15400
C1332       C  0.26636868  0.40316850  0.00174914     0.21200
C1333       C  0.28411663  0.37455426  0.01082318    -0.35100
C1334       C  0.26863526  0.34424306  0.00330409     0.15300
O1335       O  0.22719367  0.31119178  0.98529188    -0.27100
C1336       C  0.25237099  0.29347020  0.99748975     0.05000
C1337       C  0.27892032  0.31251403  0.00880539    -0.32000
O1338       O  0.27581983  0.43410725  0.00706770    -0.23800
C1339       C  0.25140353  0.45200794  0.99368219    -0.03800
C1340       C  0.22598354  0.43301908  0.97980340    -0.18200
H1341       H  0.19587600  0.36953993  0.96689472     0.19700
H1342       H  0.30816580  0.37584382  0.02303230     0.18100
H1343       H  0.30197089  0.30413765  0.02012477     0.18100
H1344       H  0.20324779  0.44150346  0.96793823     0.13900
C1345       C  0.90344263  0.01554680  0.23816289     0.29400
C1346       C  0.87469097  0.02260754  0.21966245    -0.37000
C1347       C  0.84445081  0.01638319  0.23601683     0.15400
C1348       C  0.84272198  0.00507546  0.26863083     0.21200
C1349       C  0.87141396  0.99783035  0.28700425    -0.35100
C1350       C  0.90156824  0.00300414  0.27031074     0.15300
O1351       O  0.93436222  0.01840139  0.22755417    -0.27100
C1352       C  0.95215699  0.00683898  0.25300276     0.05000
C1353       C  0.93325754  0.99678283  0.28021436    -0.32000
O1354       O  0.81193860  0.00047247  0.27883281    -0.23800
C1355       C  0.79386985  0.00827495  0.25223747    -0.03800
C1356       C  0.81255944  0.01829186  0.22478059    -0.18200
H1357       H  0.87582783  0.03142920  0.19411832     0.19700
H1358       H  0.87026534  0.98797006  0.31216957     0.18100
H1359       H  0.94172241  0.98668495  0.30383282     0.18100
H1360       H  0.80388952  0.02556460  0.20022772     0.13900
C1361       C  0.65189954  0.98440667  0.75784937     0.29400
C1362       C  0.62403038  0.96428728  0.76415110    -0.37000
C1363       C  0.59314759  0.97899688  0.75742114     0.15400
C1364       C  0.58998395  0.01146280  0.74603094     0.21200
C1365       C  0.61782476  0.03129671  0.73905753    -0.35100
C1366       C  0.64867086  0.01636213  0.74511523     0.15300
O1367       O  0.68318563  0.97602681  0.76279447    -0.27100
C1368       C  0.69993187  0.00273519  0.75247730     0.05000
C1369       C  0.67994771  0.02852632  0.74100889    -0.32000
O1370       O  0.55875216  0.02069338  0.74297288    -0.23800
C1371       C  0.54186370  0.99359662  0.75183939    -0.03800
C1372       C  0.56174899  0.96674413  0.76088056    -0.18200
H1373       H  0.62626747  0.93910034  0.77373330     0.19700
H1374       H  0.61557782  0.05658620  0.72975523     0.18100
H1375       H  0.68742965  0.05279101  0.73164987     0.18100
H1376       H  0.55412285  0.94228827  0.76960553     0.13900
C1377       C  0.50298839  0.23819559  0.59426714     0.29400
C1378       C  0.50750490  0.21800694  0.62236785    -0.37000
C1379       C  0.50005465  0.23292539  0.65294759     0.15400
C1380       C  0.48983017  0.26576495  0.65579574     0.21200
C1381       C  0.48473587  0.28583843  0.62759587    -0.35100
C1382       C  0.49134841  0.27059097  0.59687887     0.15300
O1383       O  0.50789383  0.22904554  0.56320884    -0.27100
C1384       C  0.49868167  0.25564822  0.54578363     0.05000
C1385       C  0.48798579  0.28227214  0.56519167    -0.32000
O1386       O  0.48607573  0.27499364  0.68706313    -0.23800
C1387       C  0.49325932  0.24745397  0.70412671    -0.03800
C1388       C  0.50185186  0.22042435  0.68434558    -0.18200
H1389       H  0.51603210  0.19243038  0.62048777     0.19700
H1390       H  0.47616060  0.31139296  0.62947321     0.18100
H1391       H  0.47901226  0.30645423  0.55708603     0.18100
H1392       H  0.50968552  0.19572649  0.69209801     0.13900
C1393       C  0.49661938  0.23081725  0.09463921     0.29400
C1394       C  0.48991517  0.21152652  0.12296377    -0.37000
C1395       C  0.49534235  0.22740360  0.15347657     0.15400
C1396       C  0.50586148  0.26021537  0.15592958     0.21200
C1397       C  0.51326130  0.27927622  0.12759565    -0.35100
C1398       C  0.50854506  0.26314834  0.09706588     0.15300
O1399       O  0.49265194  0.22124506  0.06358794    -0.27100
C1400       C  0.50281819  0.24752205  0.04612198     0.05000
C1401       C  0.51323280  0.27427989  0.06540866    -0.32000
O1402       O  0.50777965  0.27043784  0.18699289    -0.23800
C1403       C  0.49902504  0.24361114  0.20439944    -0.03800
C1404       C  0.49124893  0.21600489  0.18507487    -0.18200
H1405       H  0.48096903  0.18606917  0.12131369     0.19700
H1406       H  0.52190372  0.30484364  0.12924394     0.18100
H1407       H  0.52208620  0.29851553  0.05723702     0.18100
H1408       H  0.48298522  0.19154076  0.19317205     0.13900
C1409       C  0.09251517  0.51156269  0.26280412     0.29400
C1410       C  0.12126692  0.51441218  0.28236372    -0.37000
C1411       C  0.15145312  0.51025700  0.26532686     0.15400
C1412       C  0.15318868  0.50452285  0.23131781     0.21200
C1413       C  0.12446992  0.50121772  0.21188034    -0.35100
C1414       C  0.09431707  0.50458540  0.22902762     0.15300
O1415       O  0.06160920  0.51388911  0.27354357    -0.27100
C1416       C  0.04372398  0.50769736  0.24638727     0.05000
C1417       C  0.06252924  0.50157600  0.21800585    -0.32000
O1418       O  0.18398905  0.50173573  0.22050875    -0.23800
C1419       C  0.20204921  0.50516535  0.24801676    -0.03800
C1420       C  0.18331057  0.51036029  0.27672566    -0.18200
H1421       H  0.12015824  0.51907118  0.30896654     0.19700
H1422       H  0.12556924  0.49593329  0.18539450     0.18100
H1423       H  0.05394704  0.49583803  0.19303077     0.18100
H1424       H  0.19195199  0.51381812  0.30209484     0.13900
C1425       C  0.74107570  0.59456546  0.97827523     0.29400
C1426       C  0.72145093  0.62333555  0.97499531    -0.37000
C1427       C  0.73799046  0.65364880  0.98046615     0.15400
C1428       C  0.77171943  0.65548575  0.98745897     0.21200
C1429       C  0.79129763  0.62679932  0.99071287    -0.35100
C1430       C  0.77454605  0.59651915  0.98640180     0.15300
O1431       O  0.73029201  0.56354707  0.97693897    -0.27100
C1432       C  0.75709039  0.54572275  0.98487433     0.05000
C1433       C  0.78529339  0.56475953  0.99110443    -0.32000
O1434       O  0.78188219  0.68621287  0.99261357    -0.23800
C1435       C  0.75423550  0.70416464  0.98956155    -0.03800
C1436       C  0.72607062  0.68540123  0.98205341    -0.18200
H1437       H  0.69493913  0.62208953  0.96999245     0.19700
H1438       H  0.81740176  0.62798391  0.99752958     0.18100
H1439       H  0.80978976  0.55639204  0.99883474     0.18100
H1440       H  0.70066784  0.69390491  0.97857643     0.13900
loop_ 
_geom_bond_atom_site_label_1 
_geom_bond_atom_site_label_2 
_geom_bond_distance 
_geom_bond_site_symmetry_2 
_ccdc_geom_bond_type 
O1           Mg3   2.167       .  S
O1           Mg9   2.127       .  S
O1           C36   1.240       .  S
C2           O15   1.239       .  S
C2           O39   1.272       .  A
C2           H41   1.081       .  S
Mg3          O32   2.136       .  S
Mg3          O47   2.403       .  S
Mg3          O43   2.340       .  S
Mg3          O14   2.313       .  S
O4          Mg46   2.134       .  S
O4          Mg29   2.150       .  S
O4           C25   1.240       .  S
O5           C36   1.276       .  A
O5          Mg29   2.320       .  S
C6            O8   1.261       .  A
C6           O20   1.285       .  A
C6          C497   1.469       .  S
O7           C35   1.273       .  A
O7           Mg9   2.302       .  S
O8          Mg40   2.170       .  S
Mg9          O15   2.124       .  S
Mg9          O23   2.171       .  S
Mg9          O11   2.308       .  S
C10          O48   1.281       .  A
C10          O16   1.267       .  A
C10         C501   1.484       .  S
O11          C18   1.271       .  A
H12          C25   1.081       .  S
C13          O27   1.238       .  S
C13          O28   1.271       .  A
C13          H38   1.081       .  S
O14          C37   1.274       .  A
O15         Mg29   2.129       .  S
O16         Mg46   2.263       .  S
C17          O30   1.263       .  A
C17          O22   1.289       .  A
C17         C519   1.476       .  S
C18          O45   1.284       .  A
C18         C513   1.494       .  S
Mg19         O26   2.160       .  S
Mg19         O27   2.140       .  S
Mg19         O20   2.397       .  S
Mg19         O21   2.311       .  S
Mg19         O48   2.339       .  S
O21          C25   1.275       .  A
O22         Mg29   2.409       .  S
O23          C42   1.262       .  A
O24          C44   1.267       .  A
O24         Mg40   2.277       .  S
O26         Mg40   2.127       .  S
O26          C37   1.239       .  S
O27         Mg46   2.115       .  S
O28         Mg40   2.295       .  S
Mg29         O45   2.339       .  S
O30         Mg46   2.196       .  S
H31          C36   1.081       .  S
O32         Mg40   2.123       .  S
O32          C35   1.239       .  S
H33          C35   1.081       .  S
H34          C37   1.081       .  S
O39         Mg46   2.300       .  S
C42          O47   1.286       .  A
C42         C507   1.471       .  S
O43          C44   1.283       .  A
C44         C489   1.487       .  S
O49         Mg51   2.152       .  S
O49         Mg57   2.124       .  S
O49          C84   1.239       .  S
C50          O63   1.239       .  S
C50          O87   1.272       .  A
C50          H89   1.081       .  S
Mg51         O80   2.144       .  S
Mg51         O95   2.404       .  S
Mg51         O91   2.334       .  S
Mg51         O62   2.312       .  S
O52         Mg94   2.134       .  S
O52         Mg77   2.154       .  S
O52          C73   1.240       .  S
O53          C84   1.274       .  A
O53         Mg77   2.312       .  S
C54          O56   1.264       .  A
C54          O68   1.288       .  A
C54         C503   1.477       .  S
O55          C83   1.273       .  A
O55         Mg57   2.299       .  S
O56         Mg88   2.204       .  S
Mg57         O63   2.118       .  S
Mg57         O71   2.165       .  S
Mg57         O59   2.294       .  S
C58          O96   1.282       .  A
C58          O64   1.268       .  A
C58         C453   1.482       .  S
O59          C66   1.269       .  A
H60          C73   1.081       .  S
C61          O75   1.238       .  S
C61          O76   1.272       .  A
C61          H86   1.081       .  S
O62          C85   1.274       .  A
O63         Mg77   2.130       .  S
O64         Mg94   2.265       .  S
C65          O78   1.264       .  A
C65          O70   1.289       .  A
C65         C471   1.477       .  S
C66          O93   1.285       .  A
C66         C153   1.492       .  S
Mg67         O74   2.147       .  S
Mg67         O75   2.146       .  S
Mg67         O68   2.405       .  S
Mg67         O69   2.315       .  S
Mg67         O96   2.334       .  S
O69          C73   1.275       .  A
O70         Mg77   2.409       .  S
O71          C90   1.261       .  A
O72          C92   1.266       .  A
O72         Mg88   2.257       .  S
O74         Mg88   2.134       .  S
O74          C85   1.240       .  S
O75         Mg94   2.129       .  S
O76         Mg88   2.298       .  S
Mg77         O93   2.343       .  S
O78         Mg94   2.204       .  S
H79          C84   1.081       .  S
O80         Mg88   2.123       .  S
O80          C83   1.239       .  S
H81          C83   1.081       .  S
H82          C85   1.081       .  S
O87         Mg94   2.296       .  S
C90          O95   1.286       .  A
C90         C525   1.469       .  S
O91          C92   1.281       .  A
C92         C521   1.482       .  S
O97         Mg99   2.156       .  S
O97        Mg105   2.124       .  S
O97         C132   1.240       .  S
C98         O111   1.239       .  S
C98         O135   1.272       .  A
C98         H137   1.081       .  S
Mg99        O128   2.142       .  S
Mg99        O143   2.406       .  S
Mg99        O139   2.340       .  S
Mg99        O110   2.315       .  S
O100       Mg142   2.136       .  S
O100       Mg125   2.157       .  S
O100        C121   1.240       .  S
O101        C132   1.275       .  A
O101       Mg125   2.315       .  S
C102        O104   1.264       .  A
C102        O116   1.290       .  A
C102        C483   1.479       .  S
O103        C131   1.273       .  A
O103       Mg105   2.298       .  S
O104       Mg136   2.204       .  S
Mg105       O111   2.125       .  S
Mg105       O119   2.172       .  S
Mg105       O107   2.287       .  S
C106        O144   1.284       .  A
C106        O112   1.268       .  A
C106        C299   1.487       .  S
O107        C114   1.268       .  A
H108        C121   1.081       .  S
C109        O123   1.239       .  S
C109        O124   1.272       .  A
C109        H134   1.081       .  S
O110        C133   1.275       .  A
O111       Mg125   2.135       .  S
O112       Mg142   2.271       .  S
C113        O126   1.265       .  A
C113        O118   1.291       .  A
C113        C303   1.482       .  S
C114        O141   1.286       .  A
C114        C155   1.493       .  S
Mg115       O122   2.156       .  S
Mg115       O123   2.143       .  S
Mg115       O116   2.417       .  S
Mg115       O117   2.315       .  S
Mg115       O144   2.346       .  S
O117        C121   1.275       .  A
O118       Mg125   2.421       .  S
O119        C138   1.262       .  A
O120        C140   1.268       .  A
O120       Mg136   2.266       .  S
O122       Mg136   2.131       .  S
O122        C133   1.240       .  S
O123       Mg142   2.132       .  S
O124       Mg136   2.301       .  S
Mg125       O141   2.352       .  S
O126       Mg142   2.211       .  S
H127        C132   1.081       .  S
O128       Mg136   2.121       .  S
O128        C131   1.239       .  S
H129        C131   1.081       .  S
H130        C133   1.081       .  S
O135       Mg142   2.297       .  S
C138        O143   1.286       .  A
C138        C527   1.470       .  S
O139        C140   1.281       .  A
C140        C149   1.486       .  S
C145       C1432   1.451       .  S
C145        N146   1.359       .  A
C145        N150   1.362   1_556  A
N146        C147   1.353       .  A
C147        C173   1.480       .  S
C147        N148   1.367       .  A
N148        C149   1.364   1_556  A
C149        N150   1.355       .  A
C151       C1416   1.444       .  S
C151        N152   1.352   1_455  A
C151        N156   1.353   1_455  A
N152        C153   1.352       .  A
C153        N154   1.377       .  A
N154        C155   1.377       .  A
C155        N156   1.352       .  A
O157       Mg159   2.175       .  S
O157       Mg165   2.133       .  S
O157        C192   1.240       .  S
C158        O171   1.238       .  S
C158        O195   1.272       .  A
C158        H197   1.081       .  S
Mg159       O188   2.127       .  S
Mg159       O203   2.393       .  S
Mg159       O199   2.347       .  S
Mg159       O170   2.312       .  S
O160       Mg202   2.134       .  S
O160       Mg185   2.163       .  S
O160        C181   1.242       .  S
O161        C192   1.276       .  A
O161       Mg185   2.322       .  S
C162        O164   1.260       .  A
C162        O176   1.288       .  A
C162        C255   1.471       .  S
O163        C191   1.271       .  A
O163       Mg165   2.296       .  S
O164       Mg196   2.161       .  S
Mg165       O171   2.125       .  S
Mg165       O179   2.181       .  S
Mg165       O167   2.292       .  S
C166        O204   1.281       .  A
C166        O172   1.266       .  A
C166        C485   1.483       .  S
O167        C174   1.269       .  A
H168        C181   1.081       .  S
C169        O183   1.238       .  S
C169        O184   1.271       .  A
C169        H194   1.081       .  S
O170        C193   1.275       .  A
O171       Mg185   2.130       .  S
O172       Mg202   2.256       .  S
C173        O186   1.263       .  A
C173        O178   1.291       .  A
C174        O201   1.286       .  A
C174        C515   1.495       .  S
Mg175       O182   2.157       .  S
Mg175       O183   2.136       .  S
Mg175       O176   2.415       .  S
Mg175       O177   2.321       .  S
Mg175       O204   2.341       .  S
O177        C181   1.277       .  A
O178       Mg185   2.422       .  S
O179        C198   1.263       .  A
O180        C200   1.267       .  A
O180       Mg196   2.284       .  S
O182       Mg196   2.126       .  S
O182        C193   1.240       .  S
O183       Mg202   2.118       .  S
O184       Mg196   2.297       .  S
Mg185       O201   2.357       .  S
O186       Mg202   2.198       .  S
H187        C192   1.081       .  S
O188       Mg196   2.112       .  S
O188        C191   1.238       .  S
H189        C191   1.081       .  S
H190        C193   1.081       .  S
O195       Mg202   2.298       .  S
C198        O203   1.285       .  A
C198        C509   1.469       .  S
O199        C200   1.284       .  A
C200        C261   1.491       .  S
O205       Mg207   2.166       .  S
O205       Mg213   2.123       .  S
O205        C240   1.240       .  S
C206        O219   1.239       .  S
C206        O243   1.272       .  A
C206        H245   1.081       .  S
Mg207       O236   2.126       .  S
Mg207       O251   2.416       .  S
Mg207       O247   2.345       .  S
Mg207       O218   2.317       .  S
O208       Mg250   2.126       .  S
O208       Mg233   2.163       .  S
O208        C229   1.240       .  S
O209        C240   1.275       .  A
O209       Mg233   2.318       .  S
C210        O212   1.261       .  A
C210        O224   1.287       .  A
C210        C257   1.471       .  S
O211        C239   1.272       .  A
O211       Mg213   2.302       .  S
O212       Mg244   2.169       .  S
Mg213       O219   2.113       .  S
Mg213       O227   2.165       .  S
Mg213       O215   2.289       .  S
C214        O252   1.284       .  A
C214        O220   1.268       .  A
C214        C281   1.489       .  S
O215        C222   1.268       .  A
H216        C229   1.081       .  S
C217        O231   1.238       .  S
C217        O232   1.272       .  A
C217        H242   1.081       .  S
O218        C241   1.276       .  A
O219       Mg233   2.129       .  S
O220       Mg250   2.287       .  S
C221        O234   1.260       .  A
C221        O226   1.286       .  A
C221        C285   1.467       .  S
C222        O249   1.283       .  A
C222        C477   1.491       .  S
Mg223       O230   2.160       .  S
Mg223       O231   2.130       .  S
Mg223       O224   2.410       .  S
Mg223       O225   2.317       .  S
Mg223       O252   2.338       .  S
O225        C229   1.275       .  A
O226       Mg233   2.406       .  S
O227        C246   1.260       .  A
O228        C248   1.269       .  A
O228       Mg244   2.295       .  S
O230       Mg244   2.131       .  S
O230        C241   1.240       .  S
O231       Mg250   2.118       .  S
O232       Mg244   2.298       .  S
Mg233       O249   2.342       .  S
O234       Mg250   2.161       .  S
H235        C240   1.081       .  S
O236       Mg244   2.121       .  S
O236        C239   1.239       .  S
H237        C239   1.081       .  S
H238        C241   1.081       .  S
O243       Mg250   2.299       .  S
C246        O251   1.288       .  A
C246        C267   1.473       .  S
O247        C248   1.284       .  A
C248        C263   1.493       .  S
C253       C1400   1.444       .  S
C253        N254   1.363   1_554  A
C253        N258   1.362   1_554  A
N254        C255   1.352       .  A
C255        N256   1.358       .  A
N256        C257   1.357       .  A
C257        N258   1.351       .  A
C259       C1387   1.449       .  S
C259        N260   1.353       .  A
C259        N264   1.355       .  A
N260        C261   1.352       .  A
C261        N262   1.376       .  A
N262        C263   1.376       .  A
C263        N264   1.353       .  A
C265       C1371   1.445       .  S
C265        N266   1.363   1_565  A
C265        N270   1.365       .  A
N266        C267   1.350       .  A
C267        N268   1.356   1_545  A
N268        C269   1.357       .  A
C269        C396   1.474       .  S
C269        N270   1.353       .  A
C271       C1352   1.446       .  S
C271        N272   1.362   1_655  A
C271        N276   1.365   1_645  A
N272        C273   1.351       .  A
C273        C348   1.466       .  S
C273        N274   1.355       .  A
N274        C275   1.354   1_545  A
C275        C444   1.470       .  S
C275        N276   1.353       .  A
C277       C1336   1.446       .  S
C277        N278   1.354   1_556  A
C277        N282   1.353       .  A
N278        C279   1.353       .  A
C279        C316   1.491       .  S
C279        N280   1.376       .  A
N280        C281   1.375   1_554  A
C281        N282   1.351       .  A
C283       C1320   1.446       .  S
C283        N284   1.364   1_564  A
C283        N288   1.362   1_565  A
N284        C285   1.352       .  A
C285        N286   1.355   1_556  A
N286        C287   1.356       .  A
C287        C323   1.467       .  S
C287        N288   1.351       .  A
C289       C1304   1.446       .  S
C289        N290   1.353       .  A
C289        N294   1.354   1_565  A
N290        C291   1.352       .  A
C291        C420   1.488       .  S
C291        N292   1.375   1_565  A
N292        C293   1.374       .  A
C293        C324   1.489       .  S
C293        N294   1.352       .  A
C295       C1291   1.448       .  S
C295        N296   1.358   1_556  A
C295        N300   1.359   1_456  A
N296        C297   1.353       .  A
C297        C312   1.479       .  S
C297        N298   1.369       .  A
N298        C299   1.366   1_455  A
C299        N300   1.352       .  A
C301       C1272   1.452       .  S
C301        N302   1.360   1_455  A
C301        N306   1.360       .  A
N302        C303   1.354       .  A
C303        N304   1.369   1_655  A
N304        C305   1.366       .  A
C305        C350   1.487       .  S
C305        N306   1.354       .  A
O307       Mg309   2.156       .  S
O307       Mg315   2.125       .  S
O307        C342   1.239       .  S
C308        O321   1.238       .  S
C308        O345   1.271       .  A
C308        H347   1.081       .  S
Mg309       O338   2.137       .  S
Mg309       O353   2.406       .  S
Mg309       O349   2.346       .  S
Mg309       O320   2.314       .  S
O310       Mg352   2.132       .  S
O310       Mg335   2.167       .  S
O310        C331   1.240       .  S
O311        C342   1.274       .  A
O311       Mg335   2.310       .  S
C312        O314   1.262       .  A
C312        O326   1.291       .  A
O313        C341   1.272       .  A
O313       Mg315   2.297       .  S
O314       Mg346   2.196       .  S
Mg315       O321   2.107       .  S
Mg315       O329   2.152       .  S
Mg315       O317   2.288       .  S
C316        O354   1.284       .  A
C316        O322   1.268       .  A
O317        C324   1.268       .  A
H318        C331   1.081       .  S
C319        O333   1.238       .  S
C319        O334   1.272       .  A
C319        H344   1.081       .  S
O320        C343   1.276       .  A
O321       Mg335   2.128       .  S
O322       Mg352   2.288       .  S
C323        O336   1.262       .  A
C323        O328   1.285       .  A
C324        O351   1.284       .  A
Mg325       O332   2.153       .  S
Mg325       O333   2.130       .  S
Mg325       O326   2.421       .  S
Mg325       O327   2.323       .  S
Mg325       O354   2.344       .  S
O327        C331   1.276       .  A
O328       Mg335   2.393       .  S
O329        C348   1.260       .  A
O330        C350   1.267       .  A
O330       Mg346   2.266       .  S
O332       Mg346   2.133       .  S
O332        C343   1.241       .  S
O333       Mg352   2.127       .  S
O334       Mg346   2.302       .  S
Mg335       O351   2.338       .  S
O336       Mg352   2.168       .  S
H337        C342   1.081       .  S
O338       Mg346   2.116       .  S
O338        C341   1.239       .  S
H339        C341   1.081       .  S
H340        C343   1.081       .  S
O345       Mg352   2.293       .  S
C348        O353   1.287       .  A
O349        C350   1.282       .  A
O355       Mg357   2.165       .  S
O355       Mg363   2.124       .  S
O355        C390   1.241       .  S
C356        O369   1.239       .  S
C356        O393   1.273       .  A
C356        H395   1.081       .  S
Mg357       O386   2.120       .  S
Mg357       O401   2.415       .  S
Mg357       O397   2.333       .  S
Mg357       O368   2.320       .  S
O358       Mg400   2.122       .  S
O358       Mg383   2.164       .  S
O358        C379   1.240       .  S
O359        C390   1.276       .  A
O359       Mg383   2.323       .  S
C360        O362   1.261       .  A
C360        O374   1.286       .  A
C360        C495   1.471       .  S
O361        C389   1.271       .  A
O361       Mg363   2.299       .  S
O362       Mg394   2.159       .  S
Mg363       O369   2.129       .  S
Mg363       O377   2.174       .  S
Mg363       O365   2.283       .  S
C364        O402   1.284       .  A
C364        O370   1.269       .  A
C364        C467   1.492       .  S
O365        C372   1.267       .  A
H366        C379   1.081       .  S
C367        O381   1.239       .  S
C367        O382   1.272       .  A
C367        H392   1.081       .  S
O368        C391   1.276       .  A
O369       Mg383   2.129       .  S
O370       Mg400   2.297       .  S
C371        O384   1.260       .  A
C371        O376   1.288       .  A
C371        C461   1.474       .  S
C372        O399   1.283       .  A
C372        C479   1.489       .  S
Mg373       O380   2.168       .  S
Mg373       O381   2.128       .  S
Mg373       O374   2.412       .  S
Mg373       O375   2.317       .  S
Mg373       O402   2.340       .  S
O375        C379   1.275       .  A
O376       Mg383   2.424       .  S
O377        C396   1.262       .  A
O378        C398   1.268       .  A
O378       Mg394   2.289       .  S
O380       Mg394   2.125       .  S
O380        C391   1.241       .  S
O381       Mg400   2.113       .  S
O382       Mg394   2.296       .  S
Mg383       O399   2.340       .  S
O384       Mg400   2.166       .  S
H385        C390   1.081       .  S
O386       Mg394   2.112       .  S
O386        C389   1.237       .  S
H387        C389   1.081       .  S
H388        C391   1.081       .  S
O393       Mg400   2.307       .  S
C396        O401   1.287       .  A
O397        C398   1.283       .  A
C398        C491   1.487       .  S
O403       Mg405   2.153       .  S
O403       Mg411   2.124       .  S
O403        C438   1.240       .  S
C404        O417   1.238       .  S
C404        O441   1.271       .  A
C404        H443   1.081       .  S
Mg405       O434   2.142       .  S
Mg405       O449   2.406       .  S
Mg405       O445   2.327       .  S
Mg405       O416   2.318       .  S
O406       Mg448   2.130       .  S
O406       Mg431   2.162       .  S
O406        C427   1.240       .  S
O407        C438   1.275       .  A
O407       Mg431   2.315       .  S
C408        O410   1.262       .  A
C408        O422   1.291       .  A
C408        C455   1.477       .  S
O409        C437   1.272       .  A
O409       Mg411   2.298       .  S
O410       Mg442   2.196       .  S
Mg411       O417   2.114       .  S
Mg411       O425   2.166       .  S
Mg411       O413   2.283       .  S
C412        O450   1.286       .  A
C412        O418   1.269       .  A
C412        C465   1.493       .  S
O413        C420   1.268       .  A
H414        C427   1.081       .  S
C415        O429   1.238       .  S
C415        O430   1.272       .  A
C415        H440   1.081       .  S
O416        C439   1.276       .  A
O417       Mg431   2.129       .  S
O418       Mg448   2.291       .  S
C419        O432   1.263       .  A
C419        O424   1.287       .  A
C419        C459   1.474       .  S
C420        O447   1.284       .  A
Mg421       O428   2.160       .  S
Mg421       O429   2.129       .  S
Mg421       O422   2.420       .  S
Mg421       O423   2.316       .  S
Mg421       O450   2.353       .  S
O423        C427   1.275       .  A
O424       Mg431   2.408       .  S
O425        C444   1.261       .  A
O426        C446   1.266       .  A
O426       Mg442   2.258       .  S
O428       Mg442   2.133       .  S
O428        C439   1.240       .  S
O429       Mg448   2.125       .  S
O430       Mg442   2.301       .  S
Mg431       O447   2.339       .  S
O432       Mg448   2.180       .  S
H433        C438   1.081       .  S
O434       Mg442   2.121       .  S
O434        C437   1.239       .  S
H435        C437   1.081       .  S
H436        C439   1.081       .  S
O441       Mg448   2.295       .  S
C444        O449   1.286       .  A
O445        C446   1.280       .  A
C446        C473   1.480       .  S
C451       C1256   1.444       .  S
C451        N452   1.358       .  A
C451        N456   1.357   1_655  A
N452        C453   1.352       .  A
C453        N454   1.365       .  A
N454        C455   1.368   1_655  A
C455        N456   1.351       .  A
C457       C1240   1.448       .  S
C457        N458   1.363   1_545  A
C457        N462   1.365   1_545  A
N458        C459   1.351       .  A
C459        N460   1.357       .  A
N460        C461   1.358       .  A
C461        N462   1.354       .  A
C463       C1227   1.451       .  S
C463        N464   1.355       .  A
C463        N468   1.354       .  A
N464        C465   1.353       .  A
C465        N466   1.377       .  A
N466        C467   1.376       .  A
C467        N468   1.353       .  A
C469       C1208   1.449       .  S
C469        N470   1.360   1_455  A
C469        N474   1.359       .  A
N470        C471   1.354       .  A
C471        N472   1.366       .  A
N472        C473   1.363   1_655  A
C473        N474   1.353       .  A
C475       C1192   1.452   1_565  S
C475        N476   1.356   1_565  A
C475        N480   1.355       .  A
N476        C477   1.354       .  A
C477        N478   1.374   1_545  A
N478        C479   1.374       .  A
C479        N480   1.352       .  A
C481       C1179   1.447   1_556  S
C481        N482   1.360   1_556  A
C481        N486   1.359       .  A
N482        C483   1.354       .  A
C483        N484   1.367   1_554  A
N484        C485   1.364       .  A
C485        N486   1.352       .  A
C487       C1160   1.442       .  S
C487        N488   1.353       .  A
C487        N492   1.352       .  A
N488        C489   1.352       .  A
C489        N490   1.374       .  A
N490        C491   1.374       .  A
C491        N492   1.352       .  A
C493       C1144   1.447       .  S
C493        N494   1.366       .  A
C493        N498   1.363       .  A
N494        C495   1.353       .  A
C495        N496   1.356       .  A
N496        C497   1.355       .  A
C497        N498   1.351       .  A
C499       C1131   1.447       .  S
C499        N500   1.360       .  A
C499        N504   1.358       .  A
N500        C501   1.353       .  A
C501        N502   1.364       .  A
N502        C503   1.367       .  A
C503        N504   1.353       .  A
C505       C1112   1.448       .  S
C505        N506   1.365       .  A
C505        N510   1.362       .  A
N506        C507   1.354       .  A
C507        N508   1.356       .  A
N508        C509   1.355       .  A
C509        N510   1.351       .  A
C511       C1099   1.454       .  S
C511        N512   1.355       .  A
C511        N516   1.356       .  A
N512        C513   1.354       .  A
C513        N514   1.375       .  A
N514        C515   1.376       .  A
C515        N516   1.355       .  A
C517       C1083   1.447       .  S
C517        N518   1.357       .  A
C517        N522   1.360       .  A
N518        C519   1.352       .  A
C519        N520   1.367       .  A
N520        C521   1.364       .  A
C521        N522   1.353       .  A
C523       C1064   1.447       .  S
C523        N524   1.363       .  A
C523        N528   1.364       .  A
N524        C525   1.352       .  A
C525        N526   1.356       .  A
N526        C527   1.356       .  A
C527        N528   1.354       .  A
O529       Mg531   2.123       .  S
O529       Mg537   2.149       .  S
O529        C564   1.239       .  S
C530        O543   1.240       .  S
C530        O567   1.275       .  A
C530        H569   1.081       .  S
Mg531       O560   2.131       .  S
Mg531       O575   2.253       .  S
Mg531       O571   2.198       .  S
Mg531       O542   2.296       .  S
O532       Mg574   2.146       .  S
O532       Mg557   2.133       .  S
O532        C553   1.239       .  S
O533        C564   1.272       .  A
O533       Mg557   2.296       .  S
C534        O536   1.282       .  A
C534        O548   1.267       .  A
C534        C963   1.481       .  S
O535        C563   1.273       .  A
O535       Mg537   2.309       .  S
O536       Mg568   2.335       .  S
Mg537       O543   2.154       .  S
Mg537       O551   2.344       .  S
Mg537       O539   2.396       .  S
C538        O576   1.265       .  A
C538        O544   1.291       .  A
C538        C959   1.482       .  S
O539        C546   1.287       .  A
H540        C553   1.081       .  S
C541        O555   1.240       .  S
C541        O556   1.274       .  A
C541        H566   1.081       .  S
O542        C565   1.272       .  A
O543       Mg557   2.135       .  S
O544       Mg574   2.420       .  S
C545        O558   1.283       .  A
C545        O550   1.266       .  A
C545        C981   1.481       .  S
C546        O573   1.265       .  A
C546        C977   1.477       .  S
Mg547       O554   2.125       .  S
Mg547       O555   2.127       .  S
Mg547       O548   2.257       .  S
Mg547       O549   2.300       .  S
Mg547       O576   2.211       .  S
O549        C553   1.273       .  A
O550       Mg557   2.254       .  S
O551        C570   1.282       .  A
O552        C572   1.288       .  A
O552       Mg568   2.400       .  S
O554       Mg568   2.150       .  S
O554        C565   1.239       .  S
O555       Mg574   2.139       .  S
O556       Mg568   2.308       .  S
Mg557       O573   2.214       .  S
O558       Mg574   2.337       .  S
H559        C564   1.081       .  S
O560       Mg568   2.147       .  S
O560        C563   1.239       .  S
H561        C563   1.081       .  S
H562        C565   1.081       .  S
O567       Mg574   2.316       .  S
C570        O575   1.266       .  A
C570       C1037   1.483       .  S
O571        C572   1.263       .  A
C572        C743   1.474       .  S
O577       Mg579   2.121       .  S
O577       Mg585   2.135       .  S
O577        C612   1.238       .  S
C578        O591   1.240       .  S
C578        O615   1.275       .  A
C578        H617   1.082       .  S
Mg579       O608   2.123       .  S
Mg579       O623   2.275       .  S
Mg579       O619   2.171       .  S
Mg579       O590   2.299       .  S
O580       Mg622   2.126       .  S
O580       Mg605   2.114       .  S
O580        C601   1.238       .  S
O581        C612   1.272       .  A
O581       Mg605   2.300       .  S
C582        O584   1.283       .  A
C582        O596   1.267       .  A
C582        C969   1.488       .  S
O583        C611   1.274       .  A
O583       Mg585   2.313       .  S
O584       Mg616   2.336       .  S
Mg585       O591   2.169       .  S
Mg585       O599   2.340       .  S
Mg585       O587   2.403       .  S
C586        O624   1.261       .  A
C586        O592   1.286       .  A
C586       C1005   1.474       .  S
O587        C594   1.286       .  A
H588        C601   1.081       .  S
C589        O603   1.241       .  S
C589        O604   1.277       .  A
C589        H614   1.081       .  S
O590        C613   1.271       .  A
O591       Mg605   2.129       .  S
O592       Mg622   2.413       .  S
C593        O606   1.283       .  A
C593        O598   1.269       .  A
C593        C629   1.490       .  S
C594        O621   1.260       .  A
C594       C1029   1.468       .  S
Mg595       O602   2.116       .  S
Mg595       O603   2.125       .  S
Mg595       O596   2.284       .  S
Mg595       O597   2.298       .  S
Mg595       O624   2.165       .  S
O597        C601   1.271       .  A
O598       Mg605   2.293       .  S
O599        C618   1.284       .  A
O600        C620   1.288       .  A
O600       Mg616   2.421       .  S
O602       Mg616   2.122       .  S
O602        C613   1.238       .  S
O603       Mg622   2.166       .  S
O604       Mg616   2.322       .  S
Mg605       O621   2.161       .  S
O606       Mg622   2.335       .  S
H607        C612   1.081       .  S
O608       Mg616   2.158       .  S
O608        C611   1.239       .  S
H609        C611   1.082       .  S
H610        C613   1.081       .  S
O615       Mg622   2.319       .  S
C618        O623   1.266       .  A
C618       C1023   1.486       .  S
O619        C620   1.261       .  A
C620        C993   1.474       .  S
C625       C1384   1.447       .  S
C625        N626   1.354       .  A
C625        N630   1.353       .  A
N626        C627   1.353       .  A
C627        C672   1.489       .  S
C627        N628   1.375       .  A
N628        C629   1.375       .  A
C629        N630   1.352       .  A
O631       Mg633   2.122       .  S
O631       Mg639   2.132       .  S
O631        C666   1.239       .  S
C632        O645   1.240       .  S
C632        O669   1.274       .  A
C632        H671   1.081       .  S
Mg633       O662   2.129       .  S
Mg633       O677   2.289       .  S
Mg633       O673   2.171       .  S
Mg633       O644   2.297       .  S
O634       Mg676   2.149       .  S
O634       Mg659   2.128       .  S
O634        C655   1.239       .  S
O635        C666   1.272       .  A
O635       Mg659   2.297       .  S
C636        O638   1.284       .  A
C636        O650   1.269       .  A
C636        C683   1.491       .  S
O637        C665   1.275       .  A
O637       Mg639   2.315       .  S
O638       Mg670   2.337       .  S
Mg639       O645   2.147       .  S
Mg639       O653   2.336       .  S
Mg639       O641   2.418       .  S
C640        O678   1.261       .  A
C640        O646   1.287       .  A
C640       C1013   1.472       .  S
O641        C648   1.290       .  A
H642        C655   1.081       .  S
C643        O657   1.239       .  S
C643        O658   1.274       .  A
C643        H668   1.081       .  S
O644        C667   1.272       .  A
O645       Mg659   2.130       .  S
O646       Mg676   2.409       .  S
C647        O660   1.282       .  A
C647        O652   1.266       .  A
C647        C741   1.481       .  S
C648        O675   1.264       .  A
C648       C1035   1.480       .  S
Mg649       O656   2.118       .  S
Mg649       O657   2.127       .  S
Mg649       O650   2.295       .  S
Mg649       O651   2.300       .  S
Mg649       O678   2.168       .  S
O651        C655   1.273       .  A
O652       Mg659   2.250       .  S
O653        C672   1.284       .  A
O654        C674   1.287       .  A
O654       Mg670   2.407       .  S
O656       Mg670   2.133       .  S
O656        C667   1.239       .  S
O657       Mg676   2.156       .  S
O658       Mg670   2.314       .  S
Mg659       O675   2.205       .  S
O660       Mg676   2.339       .  S
H661        C666   1.081       .  S
O662       Mg670   2.158       .  S
O662        C665   1.240       .  S
H663        C665   1.081       .  S
H664        C667   1.081       .  S
O669       Mg676   2.312       .  S
C672        O677   1.269       .  A
O673        C674   1.262       .  A
C674       C1031   1.472       .  S
C679       C1067   1.449       .  S
C679        N680   1.354       .  A
C679        N684   1.354       .  A
N680        C681   1.352       .  A
C681        C696   1.490       .  S
C681        N682   1.375       .  A
N682        C683   1.375       .  A
C683        N684   1.354       .  A
C685       C1163   1.446       .  S
C685        N686   1.352   1_556  A
C685        N690   1.353   1_556  A
N686        C687   1.351       .  A
C687        C732   1.489       .  S
C687        N688   1.375       .  A
N688        C689   1.376       .  A
C689        C761   1.487       .  S
C689        N690   1.353       .  A
O691       Mg693   2.116       .  S
O691       Mg699   2.117       .  S
O691        C726   1.238       .  S
C692        O705   1.239       .  S
C692        O729   1.275       .  A
C692        H731   1.081       .  S
Mg693       O722   2.130       .  S
Mg693       O737   2.292       .  S
Mg693       O733   2.168       .  S
Mg693       O704   2.295       .  S
O694       Mg736   2.137       .  S
O694       Mg719   2.126       .  S
O694        C715   1.239       .  S
O695        C726   1.272       .  A
O695       Mg719   2.306       .  S
C696        O698   1.284       .  A
C696        O710   1.268       .  A
O697        C725   1.276       .  A
O697       Mg699   2.317       .  S
O698       Mg730   2.340       .  S
Mg699       O705   2.166       .  S
Mg699       O713   2.334       .  S
Mg699       O701   2.415       .  S
C700        O738   1.260       .  A
C700        O706   1.287       .  A
C700       C1011   1.473       .  S
O701        C708   1.286       .  A
H702        C715   1.081       .  S
C703        O717   1.240       .  S
C703        O718   1.276       .  A
C703        H728   1.081       .  S
O704        C727   1.271       .  A
O705       Mg719   2.117       .  S
O706       Mg736   2.417       .  S
C707        O720   1.284       .  A
C707        O712   1.267       .  A
C707       C1019   1.492       .  S
C708        O735   1.259       .  A
C708       C1001   1.472       .  S
Mg709       O716   2.119       .  S
Mg709       O717   2.122       .  S
Mg709       O710   2.289       .  S
Mg709       O711   2.304       .  S
Mg709       O738   2.168       .  S
O711        C715   1.273       .  A
O712       Mg719   2.280       .  S
O713        C732   1.283       .  A
O714        C734   1.289       .  A
O714       Mg730   2.420       .  S
O716       Mg730   2.130       .  S
O716        C727   1.238       .  S
O717       Mg736   2.167       .  S
O718       Mg730   2.320       .  S
Mg719       O735   2.176       .  S
O720       Mg736   2.349       .  S
H721        C726   1.081       .  S
O722       Mg730   2.159       .  S
O722        C725   1.241       .  S
H723        C725   1.081       .  S
H724        C727   1.081       .  S
O729       Mg736   2.319       .  S
C732        O737   1.268       .  A
O733        C734   1.262       .  A
C734        C987   1.474       .  S
C739       C1224   1.445       .  S
C739        N740   1.359       .  A
C739        N744   1.358       .  A
N740        C741   1.352       .  A
C741        N742   1.364       .  A
N742        C743   1.366       .  A
C743        N744   1.352       .  A
O745       Mg747   2.117       .  S
O745       Mg753   2.125       .  S
O745        C780   1.239       .  S
C746        O759   1.240       .  S
C746        O783   1.275       .  A
C746        H785   1.081       .  S
Mg747       O776   2.125       .  S
Mg747       O791   2.289       .  S
Mg747       O787   2.169       .  S
Mg747       O758   2.299       .  S
O748       Mg790   2.135       .  S
O748       Mg773   2.120       .  S
O748        C769   1.238       .  S
O749        C780   1.273       .  A
O749       Mg773   2.302       .  S
C750        O752   1.283       .  A
C750        O764   1.270       .  A
C750       C1049   1.488       .  S
O751        C779   1.276       .  A
O751       Mg753   2.321       .  S
O752       Mg784   2.330       .  S
Mg753       O759   2.159       .  S
Mg753       O767   2.336       .  S
Mg753       O755   2.415       .  S
C754        O792   1.264       .  A
C754        O760   1.287       .  A
C754        C795   1.477       .  S
O755        C762   1.287       .  A
H756        C769   1.081       .  S
C757        O771   1.241       .  S
C757        O772   1.276       .  A
C757        H782   1.081       .  S
O758        C781   1.272       .  A
O759       Mg773   2.124       .  S
O760       Mg790   2.416       .  S
C761        O774   1.283       .  A
C761        O766   1.267       .  A
C762        O789   1.260       .  A
C762        C989   1.472       .  S
Mg763       O770   2.123       .  S
Mg763       O771   2.128       .  S
Mg763       O764   2.295       .  S
Mg763       O765   2.295       .  S
Mg763       O792   2.180       .  S
O765        C769   1.272       .  A
O766       Mg773   2.281       .  S
O767        C786   1.283       .  A
O768        C788   1.288       .  A
O768       Mg784   2.423       .  S
O770       Mg784   2.126       .  S
O770        C781   1.238       .  S
O771       Mg790   2.160       .  S
O772       Mg784   2.319       .  S
Mg773       O789   2.170       .  S
O774       Mg790   2.336       .  S
H775        C780   1.081       .  S
O776       Mg784   2.163       .  S
O776        C779   1.241       .  S
H777        C779   1.081       .  S
H778        C781   1.081       .  S
O783       Mg790   2.316       .  S
C786        O791   1.268       .  A
C786       C1025   1.489       .  S
O787        C788   1.261       .  A
C788        C995   1.477       .  S
C793       C1435   1.452       .  S
C793        N794   1.367   1_556  A
C793        N798   1.363       .  A
N794        C795   1.356       .  A
C795        N796   1.358       .  A
N796        C797   1.356   1_554  A
C797        C870   1.471       .  S
C797        N798   1.351       .  A
O799       Mg801   2.128       .  S
O799       Mg807   2.141       .  S
O799        C834   1.239       .  S
C800        O813   1.239       .  S
C800        O837   1.274       .  A
C800        H839   1.081       .  S
Mg801       O830   2.136       .  S
Mg801       O845   2.263       .  S
Mg801       O841   2.212       .  S
Mg801       O812   2.294       .  S
O802       Mg844   2.136       .  S
O802       Mg827   2.119       .  S
O802        C823   1.239       .  S
O803        C834   1.273       .  A
O803       Mg827   2.306       .  S
C804        O806   1.285       .  A
C804        O818   1.268       .  A
C804       C1053   1.489       .  S
O805        C833   1.275       .  A
O805       Mg807   2.316       .  S
O806       Mg838   2.340       .  S
Mg807       O813   2.164       .  S
Mg807       O821   2.334       .  S
Mg807       O809   2.407       .  S
C808        O846   1.262       .  A
C808        O814   1.286       .  A
C808        C851   1.469       .  S
O809        C816   1.286       .  A
H810        C823   1.081       .  S
C811        O825   1.240       .  S
C811        O826   1.274       .  A
C811        H836   1.081       .  S
O812        C835   1.271       .  A
O813       Mg827   2.120       .  S
O814       Mg844   2.402       .  S
C815        O828   1.283       .  A
C815        O820   1.268       .  A
C815        C971   1.489       .  S
C816        O843   1.260       .  A
C816       C1007   1.471       .  S
Mg817       O824   2.124       .  S
Mg817       O825   2.130       .  S
Mg817       O818   2.286       .  S
Mg817       O819   2.298       .  S
Mg817       O846   2.175       .  S
O819        C823   1.273       .  A
O820       Mg827   2.286       .  S
O821        C840   1.281       .  A
O822        C842   1.289       .  A
O822       Mg838   2.410       .  S
O824       Mg838   2.133       .  S
O824        C835   1.238       .  S
O825       Mg844   2.153       .  S
O826       Mg838   2.312       .  S
Mg827       O843   2.172       .  S
O828       Mg844   2.337       .  S
H829        C834   1.081       .  S
O830       Mg838   2.155       .  S
O830        C833   1.240       .  S
H831        C833   1.081       .  S
H832        C835   1.081       .  S
O837       Mg844   2.317       .  S
C840        O845   1.268       .  A
C840        C975   1.482       .  S
O841        C842   1.266       .  A
C842        C983   1.480       .  S
C847       C1368   1.446       .  S
C847        N848   1.362   1_545  A
C847        N852   1.362       .  A
N848        C849   1.353       .  A
C849        C862   1.469       .  S
C849        N850   1.358   1_565  A
N850        C851   1.357       .  A
C851        N852   1.351       .  A
O853       Mg855   2.118       .  S
O853       Mg861   2.126       .  S
O853        C888   1.239       .  S
C854        O867   1.239       .  S
C854        O891   1.275       .  A
C854        H893   1.081       .  S
Mg855       O884   2.128       .  S
Mg855       O899   2.303       .  S
Mg855       O895   2.162       .  S
Mg855       O866   2.301       .  S
O856       Mg898   2.137       .  S
O856       Mg881   2.123       .  S
O856        C877   1.239       .  S
O857        C888   1.273       .  A
O857       Mg881   2.304       .  S
C858        O860   1.284       .  A
C858        O872   1.269       .  A
C858       C1055   1.492       .  S
O859        C887   1.275       .  A
O859       Mg861   2.318       .  S
O860       Mg892   2.339       .  S
Mg861       O867   2.167       .  S
Mg861       O875   2.348       .  S
Mg861       O863   2.409       .  S
C862        O900   1.261       .  A
C862        O868   1.287       .  A
O863        C870   1.287       .  A
H864        C877   1.081       .  S
C865        O879   1.240       .  S
C865        O880   1.275       .  A
C865        H890   1.081       .  S
O866        C889   1.272       .  A
O867       Mg881   2.124       .  S
O868       Mg898   2.408       .  S
C869        O882   1.283       .  A
C869        O874   1.268       .  A
C869       C1047   1.488       .  S
C870        O897   1.261       .  A
Mg871       O878   2.120       .  S
Mg871       O879   2.129       .  S
Mg871       O872   2.299       .  S
Mg871       O873   2.298       .  S
Mg871       O900   2.165       .  S
O873        C877   1.272       .  A
O874       Mg881   2.285       .  S
O875        C894   1.284       .  A
O876        C896   1.287       .  A
O876       Mg892   2.408       .  S
O878       Mg892   2.125       .  S
O878        C889   1.238       .  S
O879       Mg898   2.154       .  S
O880       Mg892   2.314       .  S
Mg881       O897   2.173       .  S
O882       Mg898   2.335       .  S
H883        C888   1.081       .  S
O884       Mg892   2.167       .  S
O884        C887   1.240       .  S
H885        C887   1.082       .  S
H886        C889   1.081       .  S
O891       Mg898   2.317       .  S
C894        O899   1.270       .  A
C894       C1043   1.496       .  S
O895        C896   1.261       .  A
C896        C951   1.470       .  S
O901       Mg903   2.120       .  S
O901       Mg909   2.130       .  S
O901        C936   1.239       .  S
C902        O915   1.239       .  S
C902        O939   1.274       .  A
C902        H941   1.081       .  S
Mg903       O932   2.129       .  S
Mg903       O947   2.293       .  S
Mg903       O943   2.173       .  S
Mg903       O914   2.297       .  S
O904       Mg946   2.134       .  S
O904       Mg929   2.127       .  S
O904        C925   1.239       .  S
O905        C936   1.272       .  A
O905       Mg929   2.296       .  S
C906        O908   1.281       .  A
C906        O920   1.267       .  A
C906        C957   1.483       .  S
O907        C935   1.274       .  A
O907       Mg909   2.310       .  S
O908       Mg940   2.336       .  S
Mg909       O915   2.167       .  S
Mg909       O923   2.346       .  S
Mg909       O911   2.406       .  S
C910        O948   1.264       .  A
C910        O916   1.289       .  A
C910        C965   1.476       .  S
O911        C918   1.287       .  A
H912        C925   1.081       .  S
C913        O927   1.240       .  S
C913        O928   1.275       .  A
C913        H938   1.081       .  S
O914        C937   1.272       .  A
O915       Mg929   2.132       .  S
O916       Mg946   2.402       .  S
C917        O930   1.285       .  A
C917        O922   1.270       .  A
C917       C1017   1.493       .  S
C918        O945   1.263       .  A
C918        C999   1.473       .  S
Mg919       O926   2.126       .  S
Mg919       O927   2.137       .  S
Mg919       O920   2.264       .  S
Mg919       O921   2.300       .  S
Mg919       O948   2.204       .  S
O921        C925   1.272       .  A
O922       Mg929   2.299       .  S
O923        C942   1.285       .  A
O924        C944   1.287       .  A
O924       Mg940   2.404       .  S
O926       Mg940   2.146       .  S
O926        C937   1.239       .  S
O927       Mg946   2.154       .  S
O928       Mg940   2.313       .  S
Mg929       O945   2.174       .  S
O930       Mg946   2.344       .  S
H931        C936   1.081       .  S
O932       Mg940   2.150       .  S
O932        C935   1.239       .  S
H933        C935   1.081       .  S
H934        C937   1.081       .  S
O939       Mg946   2.314       .  S
C942        O947   1.269       .  A
C942       C1041   1.493       .  S
O943        C944   1.262       .  A
C944        C953   1.469       .  S
C949       C1259   1.446       .  S
C949        N950   1.362   1_455  A
C949        N954   1.363       .  A
N950        C951   1.352       .  A
C951        N952   1.358   1_655  A
N952        C953   1.356       .  A
C953        N954   1.351       .  A
C955       C1096   1.451       .  S
C955        N956   1.359   1_655  A
C955        N960   1.360   1_655  A
N956        C957   1.353       .  A
C957        N958   1.365       .  A
N958        C959   1.367       .  A
C959        N960   1.355       .  A
C961       C1115   1.447       .  S
C961        N962   1.360       .  A
C961        N966   1.357       .  A
N962        C963   1.353       .  A
C963        N964   1.364       .  A
N964        C965   1.366       .  A
C965        N966   1.352       .  A
C967       C1128   1.452       .  S
C967        N968   1.354   1_565  A
C967        N972   1.356   1_565  A
N968        C969   1.350       .  A
C969        N970   1.373       .  A
N970        C971   1.375       .  A
C971        N972   1.356       .  A
C973       C1275   1.452       .  S
C973        N974   1.360   1_455  A
C973        N978   1.360       .  A
N974        C975   1.354       .  A
C975        N976   1.363       .  A
N976        C977   1.364   1_655  A
C977        N978   1.353       .  A
C979       C1288   1.449       .  S
C979        N980   1.358       .  A
C979        N984   1.361   1_455  A
N980        C981   1.349       .  A
C981        N982   1.363   1_455  A
N982        C983   1.368       .  A
C983        N984   1.357       .  A
C985       C1147   1.446       .  S
C985        N986   1.364       .  A
C985        N990   1.364       .  A
N986        C987   1.352       .  A
C987        N988   1.358       .  A
N988        C989   1.357       .  A
C989        N990   1.353       .  A
C991       C1355   1.447       .  S
C991        N992   1.364       .  A
C991        N996   1.366   1_545  A
N992        C993   1.351       .  A
C993        N994   1.357   1_545  A
N994        C995   1.358       .  A
C995        N996   1.353       .  A
C997       C1323   1.441       .  S
C997        N998   1.363   1_554  A
C997       N1002   1.362       .  A
N998        C999   1.352       .  A
C999       N1000   1.358       .  A
N1000      C1001   1.357   1_556  A
C1001      N1002   1.350       .  A
C1003      C1080   1.446       .  S
C1003      N1004   1.365       .  A
C1003      N1008   1.363       .  A
N1004      C1005   1.354       .  A
C1005      N1006   1.357       .  A
N1006      C1007   1.356       .  A
C1007      N1008   1.350       .  A
C1009      C1419   1.448       .  S
C1009      N1010   1.364       .  A
C1009      N1014   1.364       .  A
N1010      C1011   1.353       .  A
C1011      N1012   1.357       .  A
N1012      C1013   1.357       .  A
C1013      N1014   1.352       .  A
C1015      C1339   1.449       .  S
C1015      N1016   1.355       .  A
C1015      N1020   1.355   1_556  A
N1016      C1017   1.353       .  A
C1017      N1018   1.375       .  A
N1018      C1019   1.376   1_556  A
C1019      N1020   1.353       .  A
C1021      C1307   1.445       .  S
C1021      N1022   1.353   1_565  A
C1021      N1026   1.354       .  A
N1022      C1023   1.350       .  A
C1023      N1024   1.374   1_545  A
N1024      C1025   1.374       .  A
C1025      N1026   1.354       .  A
C1027      C1403   1.444       .  S
C1027      N1028   1.362       .  A
C1027      N1032   1.363       .  A
N1028      C1029   1.351       .  A
C1029      N1030   1.357       .  A
N1030      C1031   1.357       .  A
C1031      N1032   1.352       .  A
C1033      C1243   1.449       .  S
C1033      N1034   1.360       .  A
C1033      N1038   1.360       .  A
N1034      C1035   1.354       .  A
C1035      N1036   1.367       .  A
N1036      C1037   1.365       .  A
C1037      N1038   1.351       .  A
C1039      C1211   1.452       .  S
C1039      N1040   1.354   1_554  A
C1039      N1044   1.355   1_454  A
N1040      C1041   1.352       .  A
C1041      N1042   1.377       .  A
N1042      C1043   1.377   1_455  A
C1043      N1044   1.355       .  A
C1045      C1176   1.449       .  S
C1045      N1046   1.354   1_544  A
C1045      N1050   1.354   1_545  A
N1046      C1047   1.353       .  A
C1047      N1048   1.374   1_556  A
N1048      C1049   1.374       .  A
C1049      N1050   1.352       .  A
C1051      C1195   1.444       .  S
C1051      N1052   1.352   1_455  A
C1051      N1056   1.352   1_445  A
N1052      C1053   1.352       .  A
C1053      N1054   1.377       .  A
N1054      C1055   1.376   1_545  A
C1055      N1056   1.352       .  A
C1057      C1062   1.382       .  A
C1057      C1058   1.396       .  A
C1057      O1063   1.312       .  A
C1058      H1069   1.082       .  S
C1058      C1059   1.395       .  A
C1059      C1068   1.354       .  A
C1059      C1060   1.382       .  A
C1060      C1061   1.399       .  A
C1060      O1066   1.314       .  A
C1061      H1070   1.082       .  S
C1061      C1062   1.398       .  A
C1062      C1065   1.357       .  A
O1063      C1064   1.325       .  A
C1064      C1065   1.387       .  A
C1065      H1071   1.082       .  S
O1066      C1067   1.327       .  A
C1067      C1068   1.386       .  A
C1068      H1072   1.082       .  S
C1073      C1078   1.382       .  A
C1073      C1074   1.396       .  A
C1073      O1079   1.310       .  A
C1074      H1085   1.082       .  S
C1074      C1075   1.394       .  A
C1075      C1084   1.354       .  A
C1075      C1076   1.382       .  A
C1076      C1077   1.399       .  A
C1076      O1082   1.313       .  A
C1077      H1086   1.082       .  S
C1077      C1078   1.398       .  A
C1078      C1081   1.357       .  A
O1079      C1080   1.325       .  A
C1080      C1081   1.387       .  A
C1081      H1087   1.082       .  S
O1082      C1083   1.327       .  A
C1083      C1084   1.385       .  A
C1084      H1088   1.082       .  S
C1089      C1094   1.382       .  A
C1089      C1090   1.400       .  A
C1089      O1095   1.315       .  A
C1090      H1101   1.082       .  S
C1090      C1091   1.399       .  A
C1091      C1100   1.357       .  A
C1091      C1092   1.382       .  A
C1092      C1093   1.398       .  A
C1092      O1098   1.314       .  A
C1093      H1102   1.082       .  S
C1093      C1094   1.397       .  A
C1094      C1097   1.356       .  A
O1095      C1096   1.328       .  A
C1096      C1097   1.386       .  A
C1097      H1103   1.082       .  S
O1098      C1099   1.327       .  A
C1099      C1100   1.388       .  A
C1100      H1104   1.082       .  S
C1105      C1110   1.382       .  A
C1105      C1106   1.397       .  A
C1105      O1111   1.312       .  A
C1106      H1117   1.082       .  S
C1106      C1107   1.396       .  A
C1107      C1116   1.356       .  A
C1107      C1108   1.382       .  A
C1108      C1109   1.398       .  A
C1108      O1114   1.312       .  A
C1109      H1118   1.082       .  S
C1109      C1110   1.396       .  A
C1110      C1113   1.356       .  A
O1111      C1112   1.326       .  A
C1112      C1113   1.386       .  A
C1113      H1119   1.082       .  S
O1114      C1115   1.326       .  A
C1115      C1116   1.386       .  A
C1116      H1120   1.082       .  S
C1121      C1126   1.382       .  A
C1121      C1122   1.401       .  A
C1121      O1127   1.316       .  A
C1122      H1133   1.082       .  S
C1122      C1123   1.400       .  A
C1123      C1132   1.359       .  A
C1123      C1124   1.382       .  A
C1124      C1125   1.395       .  A
C1124      O1130   1.311       .  A
C1125      H1134   1.082       .  S
C1125      C1126   1.394       .  A
C1126      C1129   1.351       .  A
O1127      C1128   1.328       .  A
C1128      C1129   1.386       .  A
C1129      H1135   1.082       .  S
O1130      C1131   1.325       .  A
C1131      C1132   1.387       .  A
C1132      H1136   1.082       .  S
C1137      C1142   1.382       .  A
C1137      C1138   1.399       .  A
C1137      O1143   1.313       .  A
C1138      H1149   1.082       .  S
C1138      C1139   1.398       .  A
C1139      C1148   1.357       .  A
C1139      C1140   1.382       .  A
C1140      C1141   1.396       .  A
C1140      O1146   1.311       .  A
C1141      H1150   1.082       .  S
C1141      C1142   1.394       .  A
C1142      C1145   1.354       .  A
O1143      C1144   1.327       .  A
C1144      C1145   1.385       .  A
C1145      H1151   1.082       .  S
O1146      C1147   1.325       .  A
C1147      C1148   1.387       .  A
C1148      H1152   1.082       .  S
C1153      C1158   1.382       .  A
C1153      C1154   1.398       .  A
C1153      O1159   1.312       .  A
C1154      H1165   1.082       .  S
C1154      C1155   1.397       .  A
C1155      C1164   1.356       .  A
C1155      C1156   1.382       .  A
C1156      C1157   1.395       .  A
C1156      O1162   1.310       .  A
C1157      H1166   1.082       .  S
C1157      C1158   1.393       .  A
C1158      C1161   1.353       .  A
O1159      C1160   1.326       .  A
C1160      C1161   1.383       .  A
C1161      H1167   1.082       .  S
O1162      C1163   1.325       .  A
C1163      C1164   1.387       .  A
C1164      H1168   1.082       .  S
C1169      C1174   1.382   1_556  A
C1169      C1170   1.399       .  A
C1169      O1175   1.313       .  A
C1170      H1181   1.082       .  S
C1170      C1171   1.397       .  A
C1171      C1180   1.357       .  A
C1171      C1172   1.382   1_556  A
C1172      C1173   1.397       .  A
C1172      O1178   1.312       .  A
C1173      H1182   1.082       .  S
C1173      C1174   1.395       .  A
C1174      C1177   1.354       .  A
O1175      C1176   1.327   1_556  A
C1176      C1177   1.386       .  A
C1177      H1183   1.082       .  S
O1178      C1179   1.326       .  A
C1179      C1180   1.386   1_554  A
C1180      H1184   1.082       .  S
C1185      C1190   1.382   1_545  A
C1185      C1186   1.399       .  A
C1185      O1191   1.314       .  A
C1186      H1197   1.082       .  S
C1186      C1187   1.397       .  A
C1187      C1196   1.356       .  A
C1187      C1188   1.383   1_545  A
C1188      C1189   1.396       .  A
C1188      O1194   1.312       .  A
C1189      H1198   1.082       .  S
C1189      C1190   1.395       .  A
C1190      C1193   1.354       .  A
O1191      C1192   1.327       .  A
C1192      C1193   1.387   1_545  A
C1193      H1199   1.082       .  S
O1194      C1195   1.325   1_565  A
C1195      C1196   1.386       .  A
C1196      H1200   1.082       .  S
C1201      C1206   1.382   1_455  A
C1201      C1202   1.399       .  A
C1201      O1207   1.313       .  A
C1202      H1213   1.082       .  S
C1202      C1203   1.397       .  A
C1203      C1212   1.356       .  A
C1203      C1204   1.382   1_455  A
C1204      C1205   1.398       .  A
C1204      O1210   1.313       .  A
C1205      H1214   1.082       .  S
C1205      C1206   1.397       .  A
C1206      C1209   1.356       .  A
O1207      C1208   1.327       .  A
C1208      C1209   1.386   1_455  A
C1209      H1215   1.082       .  S
O1210      C1211   1.327   1_655  A
C1211      C1212   1.388       .  A
C1212      H1216   1.082       .  S
C1217      C1222   1.382       .  A
C1217      C1218   1.395       .  A
C1217      O1223   1.310       .  A
C1218      H1229   1.082       .  S
C1218      C1219   1.394       .  A
C1219      C1228   1.353       .  A
C1219      C1220   1.382       .  A
C1220      C1221   1.400       .  A
C1220      O1226   1.314       .  A
C1221      H1230   1.082       .  S
C1221      C1222   1.398       .  A
C1222      C1225   1.358       .  A
O1223      C1224   1.324       .  A
C1224      C1225   1.387       .  A
C1225      H1231   1.082       .  S
O1226      C1227   1.328       .  A
C1227      C1228   1.385       .  A
C1228      H1232   1.082       .  S
C1233      C1238   1.382       .  A
C1233      C1234   1.396       .  A
C1233      O1239   1.311       .  A
C1234      H1245   1.082       .  S
C1234      C1235   1.395       .  A
C1235      C1244   1.353       .  A
C1235      C1236   1.382       .  A
C1236      C1237   1.400       .  A
C1236      O1242   1.315       .  A
C1237      H1246   1.082       .  S
C1237      C1238   1.399       .  A
C1238      C1241   1.358       .  A
O1239      C1240   1.325       .  A
C1240      C1241   1.387       .  A
C1241      H1247   1.082       .  S
O1242      C1243   1.327       .  A
C1243      C1244   1.385       .  A
C1244      H1248   1.082       .  S
C1249      C1254   1.383   1_455  A
C1249      C1250   1.397       .  A
C1249      O1255   1.312       .  A
C1250      H1261   1.082       .  S
C1250      C1251   1.396       .  A
C1251      C1260   1.354       .  A
C1251      C1252   1.383   1_455  A
C1252      C1253   1.396       .  A
C1252      O1258   1.312       .  A
C1253      H1262   1.082       .  S
C1253      C1254   1.395       .  A
C1254      C1257   1.353       .  A
O1255      C1256   1.325   1_455  A
C1256      C1257   1.385       .  A
C1257      H1263   1.082       .  S
O1258      C1259   1.326   1_655  A
C1259      C1260   1.386       .  A
C1260      H1264   1.082       .  S
C1265      C1270   1.382   1_455  A
C1265      C1266   1.399       .  A
C1265      O1271   1.314       .  A
C1266      H1277   1.082       .  S
C1266      C1267   1.398       .  A
C1267      C1276   1.358       .  A
C1267      C1268   1.382   1_455  A
C1268      C1269   1.399       .  A
C1268      O1274   1.313       .  A
C1269      H1278   1.082       .  S
C1269      C1270   1.398       .  A
C1270      C1273   1.357       .  A
O1271      C1272   1.327       .  A
C1272      C1273   1.387   1_455  A
C1273      H1279   1.082       .  S
O1274      C1275   1.327   1_655  A
C1275      C1276   1.387       .  A
C1276      H1280   1.082       .  S
C1281      C1286   1.382       .  A
C1281      C1282   1.392       .  A
C1281      O1287   1.307       .  A
C1282      H1293   1.082   1_455  S
C1282      C1283   1.390       .  A
C1283      C1292   1.350       .  A
C1283      C1284   1.382       .  A
C1284      C1285   1.404       .  A
C1284      O1290   1.316       .  A
C1285      H1294   1.082       .  S
C1285      C1286   1.402       .  A
C1286      C1289   1.363       .  A
O1287      C1288   1.323       .  A
C1288      C1289   1.390       .  A
C1289      H1295   1.082       .  S
O1290      C1291   1.329       .  A
C1291      C1292   1.382       .  A
C1292      H1296   1.083   1_455  S
C1297      C1302   1.382       .  A
C1297      C1298   1.396   1_565  A
C1297      O1303   1.312   1_565  A
C1298      H1309   1.082       .  S
C1298      C1299   1.395   1_545  A
C1299      C1308   1.353   1_565  A
C1299      C1300   1.383       .  A
C1300      C1301   1.397       .  A
C1300      O1306   1.313       .  A
C1301      H1310   1.082       .  S
C1301      C1302   1.396       .  A
C1302      C1305   1.354       .  A
O1303      C1304   1.326   1_545  A
C1304      C1305   1.386       .  A
C1305      H1311   1.083       .  S
O1306      C1307   1.326       .  A
C1307      C1308   1.385   1_565  A
C1308      H1312   1.082       .  S
C1313      C1318   1.382   1_554  A
C1313      C1314   1.398       .  A
C1313      O1319   1.312       .  A
C1314      H1325   1.082       .  S
C1314      C1315   1.397       .  A
C1315      C1324   1.356       .  A
C1315      C1316   1.383       .  A
C1316      C1317   1.394   1_554  A
C1316      O1322   1.309   1_554  A
C1317      H1326   1.082       .  S
C1317      C1318   1.393       .  A
C1318      C1321   1.352       .  A
O1319      C1320   1.327       .  A
C1320      C1321   1.385   1_554  A
C1321      H1327   1.083       .  S
O1322      C1323   1.324   1_556  A
C1323      C1324   1.386       .  A
C1324      H1328   1.082       .  S
C1329      C1334   1.382   1_556  A
C1329      C1330   1.398       .  A
C1329      O1335   1.314       .  A
C1330      H1341   1.082       .  S
C1330      C1331   1.398       .  A
C1331      C1340   1.356       .  A
C1331      C1332   1.382   1_556  A
C1332      C1333   1.396       .  A
C1332      O1338   1.312       .  A
C1333      H1342   1.082       .  S
C1333      C1334   1.395       .  A
C1334      C1337   1.353       .  A
O1335      C1336   1.327       .  A
C1336      C1337   1.385   1_556  A
C1337      H1343   1.082       .  S
O1338      C1339   1.326   1_554  A
C1339      C1340   1.387       .  A
C1340      H1344   1.082       .  S
C1345      C1350   1.382       .  A
C1345      C1346   1.399       .  A
C1345      O1351   1.313       .  A
C1346      H1357   1.082       .  S
C1346      C1347   1.398       .  A
C1347      C1356   1.357       .  A
C1347      C1348   1.382       .  A
C1348      C1349   1.396   1_545  A
C1348      O1354   1.311       .  A
C1349      H1358   1.082       .  S
C1349      C1350   1.394   1_565  A
C1350      C1353   1.353   1_545  A
O1351      C1352   1.327       .  A
C1352      C1353   1.384   1_545  A
C1353      H1359   1.083       .  S
O1354      C1355   1.325       .  A
C1355      C1356   1.387       .  A
C1356      H1360   1.082       .  S
C1361      C1366   1.382   1_565  A
C1361      C1362   1.398       .  A
C1361      O1367   1.313       .  A
C1362      H1373   1.082       .  S
C1362      C1363   1.397       .  A
C1363      C1372   1.356       .  A
C1363      C1364   1.382   1_565  A
C1364      C1365   1.396       .  A
C1364      O1370   1.310       .  A
C1365      H1374   1.082       .  S
C1365      C1366   1.394       .  A
C1366      C1369   1.353       .  A
O1367      C1368   1.326   1_565  A
C1368      C1369   1.385       .  A
C1369      H1375   1.082       .  S
O1370      C1371   1.325   1_545  A
C1371      C1372   1.386       .  A
C1372      H1376   1.082       .  S
C1377      C1382   1.382       .  A
C1377      C1378   1.396       .  A
C1377      O1383   1.311       .  A
C1378      H1389   1.082       .  S
C1378      C1379   1.394       .  A
C1379      C1388   1.354       .  A
C1379      C1380   1.382       .  A
C1380      C1381   1.400       .  A
C1380      O1386   1.314       .  A
C1381      H1390   1.082       .  S
C1381      C1382   1.398       .  A
C1382      C1385   1.358       .  A
O1383      C1384   1.325       .  A
C1384      C1385   1.387       .  A
C1385      H1391   1.082       .  S
O1386      C1387   1.328       .  A
C1387      C1388   1.385       .  A
C1388      H1392   1.082       .  S
C1393      C1398   1.382       .  A
C1393      C1394   1.396       .  A
C1393      O1399   1.311       .  A
C1394      H1405   1.082       .  S
C1394      C1395   1.395       .  A
C1395      C1404   1.353       .  A
C1395      C1396   1.382       .  A
C1396      C1397   1.397       .  A
C1396      O1402   1.312       .  A
C1397      H1406   1.082       .  S
C1397      C1398   1.396       .  A
C1398      C1401   1.355       .  A
O1399      C1400   1.325       .  A
C1400      C1401   1.385       .  A
C1401      H1407   1.082       .  S
O1402      C1403   1.326       .  A
C1403      C1404   1.385       .  A
C1404      H1408   1.082       .  S
C1409      C1414   1.382       .  A
C1409      C1410   1.398       .  A
C1409      O1415   1.313       .  A
C1410      H1421   1.082       .  S
C1410      C1411   1.397       .  A
C1411      C1420   1.356       .  A
C1411      C1412   1.382       .  A
C1412      C1413   1.396       .  A
C1412      O1418   1.311       .  A
C1413      H1422   1.082       .  S
C1413      C1414   1.395       .  A
C1414      C1417   1.353       .  A
O1415      C1416   1.326       .  A
C1416      C1417   1.384       .  A
C1417      H1423   1.082       .  S
O1418      C1419   1.325       .  A
C1419      C1420   1.387       .  A
C1420      H1424   1.082       .  S
C1425      C1430   1.382       .  A
C1425      C1426   1.401       .  A
C1425      O1431   1.315       .  A
C1426      H1437   1.082       .  S
C1426      C1427   1.399       .  A
C1427      C1436   1.359       .  A
C1427      C1428   1.382       .  A
C1428      C1429   1.397       .  A
C1428      O1434   1.312       .  A
C1429      H1438   1.082       .  S
C1429      C1430   1.396       .  A
C1430      C1433   1.355       .  A
O1431      C1432   1.328       .  A
C1432      C1433   1.385       .  A
C1433      H1439   1.082       .  S
O1434      C1435   1.326       .  A
C1435      C1436   1.388       .  A
C1436      H1440   1.082       .  S
