geometry optimzed in LAMMPS
_audit_creation_date              2020-11-30 
_audit_creation_method            'lammps2cif' 
_symmetry_space_group_name_H-M    'P1' 
_symmetry_Int_Tables_number       1 
_symmetry_cell_setting            triclinic 
loop_ 
_symmetry_equiv_pos_as_xyz 
  x,y,z 
_cell_length_a                    43.439220907473164 
_cell_length_b                    36.43815714262416 
_cell_length_c                    29.02990264542213 
_cell_angle_alpha                 89.03552537466402 
_cell_angle_beta                  84.48194378666844 
_cell_angle_gamma                 116.92234055392659 
loop_ 
_atom_site_label 
_atom_site_type_symbol 
_atom_site_fract_x 
_atom_site_fract_y 
_atom_site_fract_z 
_atom_site_charge 
C1          C  0.38102104  0.18964217  0.00715804     0.42660
N2          N  0.36630761  0.20036962  0.07553876     0.01550
C3          C  0.33754214  0.08448537  0.27733233    -0.06330
H4          H  0.23371524  0.03643564  0.14981277     0.07040
C5          C  0.21415670  0.14099805  0.22331942    -0.06680
Co6        Co  0.36309105  0.13685671  0.14255461     0.74180
N7          N  0.28783028  0.07377966  0.15787462    -0.25860
Co8        Co  0.28774104  0.10176262  0.21996466     0.74070
C9          C  0.19387691  0.09848778  0.24379033     0.42760
N10         N  0.29217348  0.22079443  0.14396240     0.01160
N11         N  0.24341154  0.10707084  0.20832127     0.01270
N12         N  0.38681944  0.11051173  0.22782217    -0.46710
H13         H  0.38027881  0.12870970  0.03224986     0.07030
N14         N  0.31660048  0.08594459  0.12911181     0.01550
N15         N  0.28828412  0.13370577  0.27806912     0.01290
C16         C  0.28919452  0.15211102  0.34738154     0.42900
N17         N  0.32115893  0.23471913  0.11531771    -0.25310
C18         C  0.43947668  0.19239416  0.13158481    -0.06230
N19         N  0.37446469  0.21628335  0.03259413    -0.46420
N20         N  0.28842611  0.12175642  0.32103086    -0.46640
C21         C  0.45998198  0.23435922  0.10958992     0.42670
N22         N  0.36072749  0.11127270  0.20817728     0.01540
N23         N  0.36508204  0.26178699  0.19270415    -0.25340
N24         N  0.36638837  0.16443848  0.07962140    -0.25830
N25         N  0.33625648  0.24881135  0.22140142     0.01180
H26         H  0.41816968  0.30652354  0.19786093     0.07070
H27         H  0.29140324  0.21402478  0.32476368     0.07110
N28         N  0.33174749  0.09691755  0.23665144    -0.25880
N29         N  0.24477274  0.14395955  0.20472639    -0.25490
N30         N  0.41056647  0.22709901  0.14475500     0.01550
C31         C  0.27584071  0.04494247  0.09002843     0.42940
C32         C  0.31476806  0.24334319  0.07323830    -0.06740
N33         N  0.28948728  0.17045486  0.27447924    -0.25490
H34         H  0.21084603  0.16764804  0.23273074     0.07090
N35         N  0.31044244  0.06999363  0.08808605    -0.46710
H36         H  0.33314663  0.25335022  0.04222127     0.07080
C37         C  0.37503755  0.29570885  0.25727365     0.42780
C38         C  0.37556071  0.15499976  0.03837788    -0.06240
Co39       Co  0.36577733  0.23203984  0.13255456     0.73820
N40         N  0.26545763  0.21832995  0.12308154    -0.46430
C41         C  0.37426200  0.09359162  0.27168543     0.43040
N42         N  0.44040016  0.25370994  0.12112299    -0.46420
Co43       Co  0.29055354  0.19698560  0.21058367     0.73890
C44         C  0.28974395  0.18437322  0.31666755    -0.06750
C45         C  0.26079951  0.04826796  0.13628678    -0.06310
N46         N  0.40896628  0.19003652  0.14983948    -0.25840
N47         N  0.21353390  0.07963637  0.23076962    -0.46600
H48         H  0.31875830  0.07257816  0.30786554     0.07050
C49         C  0.39110653  0.29154362  0.21219880    -0.06720
Cl50       Cl  0.32697201  0.16706230  0.17669352    -0.49720
C51         C  0.27770454  0.23155987  0.07807398     0.42810
H52         H  0.44235890  0.16532685  0.12296690     0.07020
N53         N  0.34133207  0.26755015  0.26059608    -0.46430
C54         C  0.27874994  0.04514248  0.58421108     0.42660
N55         N  0.32027761  0.08610231  0.62192497     0.01550
C56         C  0.31803498  0.18950028  0.81282456    -0.06330
H57         H  0.22645723  0.17594867  0.74373743     0.07040
C58         C  0.32337719  0.25211006  0.57836669    -0.06680
Co59       Co  0.29740690  0.10146478  0.71604202     0.74180
N60         N  0.25677619  0.14878415  0.71149140    -0.25860
Co61       Co  0.30410176  0.20033110  0.71305833     0.74070
C62         C  0.28685788  0.24244080  0.58599087     0.42760
N63         N  0.37039428  0.20198030  0.57013456     0.01160
N64         N  0.30219837  0.22563242  0.64835550     0.01270
N65         N  0.31637228  0.12669191  0.81354389    -0.46710
H66         H  0.23783689  0.03372866  0.64726163     0.07030
N67         N  0.25362865  0.11095463  0.71422023     0.01550
N68         N  0.35130367  0.25222416  0.72078840     0.01290
C69         C  0.39227186  0.30045363  0.75312549     0.42900
N70         N  0.36807200  0.16468683  0.57136795    -0.25310
C71         C  0.34377164  0.06990618  0.75980487    -0.06230
N72         N  0.31325538  0.06979890  0.58143297    -0.46420
N73         N  0.35824834  0.27314097  0.75859275    -0.46640
C74         C  0.38024245  0.07835469  0.75361779     0.42670
N75         N  0.30637448  0.13517005  0.77491462     0.01540
N76         N  0.41547616  0.18681484  0.63797608    -0.25340
N77         N  0.29220127  0.07394724  0.65217642    -0.25830
N78         N  0.41845284  0.22467175  0.63562670     0.01180
H79         H  0.44554129  0.16057278  0.60386619     0.07070
H80         H  0.43262893  0.30859996  0.69092833     0.07110
N81         N  0.30818517  0.17240083  0.77329377    -0.25880
N82         N  0.33036328  0.23980669  0.61805049    -0.25490
N83         N  0.36874338  0.10679211  0.69579121     0.01550
C84         C  0.20783081  0.10693395  0.75603520     0.42940
C85         C  0.36566818  0.15170874  0.52862573    -0.06740
N86         N  0.37898911  0.26357514  0.69037718    -0.25490
H87         H  0.34085288  0.26325615  0.54655590     0.07090
N88         N  0.22475575  0.08546148  0.74062030    -0.46710
H89         H  0.36218548  0.12175757  0.51898168     0.07080
C90         C  0.46527962  0.22988551  0.59562145     0.42780
C91         C  0.26455858  0.04755361  0.63175698    -0.06240
Co92       Co  0.36841475  0.13542857  0.63251026     0.73820
N93         N  0.36911699  0.21534213  0.52831719    -0.46430
C94         C  0.32463190  0.15990244  0.83883101     0.43040
N95         N  0.39414876  0.10166506  0.71272434    -0.46420
Co96       Co  0.37477222  0.23335061  0.62912046     0.73890
C97         C  0.40629268  0.29370545  0.70773404    -0.06750
C98         C  0.22823627  0.14845112  0.73419341    -0.06310
N99         N  0.33971459  0.09028359  0.72408210    -0.25840
N100        N  0.27522039  0.22611474  0.63043300    -0.46600
H101        H  0.32204265  0.21996326  0.82092827     0.07050
C102        C  0.44454770  0.18784978  0.61637209    -0.06720
Cl103      Cl  0.33617576  0.16762679  0.67280614    -0.49720
C104        C  0.36671165  0.18547578  0.50027078     0.42810
H105        H  0.32401062  0.05373957  0.78855210     0.07020
N106        N  0.44776451  0.25068943  0.61069416    -0.46430
C107        C  0.21704392  0.25629268  0.42881361     0.42660
N108        N  0.17673910  0.25598163  0.39017744     0.01550
C109        C  0.19575905  0.38031926  0.19963568    -0.06330
H110        H  0.27938250  0.45126161  0.27244943     0.07040
C111        C  0.17511011  0.42248081  0.43506794    -0.06680
Co112      Co  0.20354960  0.30217354  0.29764314     0.74180
N113        N  0.24641677  0.39201927  0.30711262    -0.25860
Co114      Co  0.19994449  0.39509170  0.30232911     0.74070
C115        C  0.21147665  0.45347667  0.42885016     0.42760
N116        N  0.12750057  0.31908227  0.44078313     0.01160
N117        N  0.19911126  0.41926603  0.36745196     0.01270
N118        N  0.19654322  0.31868054  0.19667171    -0.46710
H119        H  0.25906697  0.29080460  0.36708703     0.07030
N120        N  0.24807781  0.35662215  0.30588847     0.01550
N121        N  0.15345807  0.39705242  0.29105893     0.01290
C122        C  0.11361552  0.40234222  0.25655962     0.42900
N123        N  0.13019234  0.28454687  0.43950295    -0.25310
C124        C  0.15310286  0.22883838  0.24481135    -0.06230
N125        N  0.18272347  0.24483264  0.43079258    -0.46420
N126        N  0.14764328  0.41155456  0.25234950    -0.46640
C127        C  0.11656336  0.19837468  0.25192642     0.42670
N128        N  0.20050750  0.33244049  0.23852150     0.01540
N129        N  0.08404520  0.25975687  0.37033438    -0.25340
N130        N  0.20525591  0.27442244  0.36074260    -0.25830
N131        N  0.08210459  0.29491472  0.37172923     0.01180
H132        H  0.04938167  0.19833780  0.39715249     0.07070
H133        H  0.07161830  0.36500625  0.31719567     0.07110
N134        N  0.19936862  0.36796643  0.24107550    -0.25880
N135        N  0.16998923  0.40243458  0.39597675    -0.25490
N136        N  0.13061287  0.23194627  0.31345831     0.01550
C137        C  0.29702054  0.40131433  0.26784454     0.42940
C138        C  0.13292397  0.27335082  0.48222387    -0.06740
N139        N  0.12499754  0.37807594  0.32035313    -0.25490
H140        H  0.15618698  0.41483984  0.46527083     0.07090
N141        N  0.27779703  0.36140507  0.28326831    -0.46710
H142        H  0.13627736  0.24671167  0.49153408     0.07080
C143        C  0.03246350  0.24910551  0.40665957     0.42780
C144        C  0.23211066  0.27563855  0.38171048    -0.06240
Co145      Co  0.13019684  0.25698960  0.37788635     0.73820
N146        N  0.12811127  0.33245687  0.48258609    -0.46430
C147        C  0.19361409  0.34769990  0.17083558     0.43040
N148        N  0.10409650  0.20256665  0.29514303    -0.46420
Co149      Co  0.12596678  0.34920271  0.38173906     0.73890
C150        C  0.09841515  0.37956859  0.30174749    -0.06750
C151        C  0.27648525  0.42179636  0.28563048    -0.06310
N152        N  0.15932313  0.24852160  0.28423732    -0.25840
N153        N  0.22476848  0.44966938  0.38591307    -0.46600
H154        H  0.19253231  0.40725762  0.19156330     0.07050
C155        C  0.05324118  0.22908997  0.38813017    -0.06720
Cl156      Cl  0.16499108  0.32589535  0.33989399    -0.49720
C157        C  0.13145921  0.30520032  0.51075177     0.42810
H158        H  0.17116201  0.23687890  0.21359876     0.07020
N159        N  0.05165523  0.28934600  0.39232591    -0.46430
C160        C  0.20408931  0.25281452  0.93128690     0.42660
N161        N  0.16746615  0.26378204  0.89533954     0.01550
C162        C  0.19885833  0.38874956  0.69915556    -0.06330
H163        H  0.27682284  0.45698187  0.77346478     0.07040
C164        C  0.16952750  0.43629880  0.93280123    -0.06680
Co165      Co  0.19819037  0.31053934  0.80400729     0.74180
N166        N  0.24315526  0.39981874  0.81153928    -0.25860
Co167      Co  0.19763787  0.40499801  0.80366337     0.74070
C168        C  0.20596264  0.46697022  0.92873474     0.42760
N169        N  0.12174178  0.33308547  0.94132551     0.01160
N170        N  0.19574640  0.43101602  0.86792864     0.01270
N171        N  0.20066743  0.32781315  0.70179805    -0.46710
H172        H  0.24792948  0.28636148  0.87136577     0.07030
N173        N  0.24336519  0.36351031  0.81249376     0.01550
N174        N  0.15247344  0.40843843  0.78886264     0.01290
C175        C  0.11476047  0.41283662  0.74856171     0.42900
N176        N  0.12177015  0.29684936  0.94167719    -0.25310
C177        C  0.14967107  0.23855178  0.75070772    -0.06230
N178        N  0.17086371  0.24681127  0.93409318    -0.46420
N179        N  0.14846029  0.42150521  0.74803005    -0.46640
C180        C  0.11352518  0.20718718  0.75605509     0.42670
N181        N  0.19912518  0.34091093  0.74340395     0.01540
N182        N  0.07738906  0.27273839  0.87253537    -0.25340
N183        N  0.19661925  0.28090804  0.86692176    -0.25830
N184        N  0.07616747  0.30840187  0.87352907     0.01180
H185        H  0.04689394  0.21491690  0.90904572     0.07070
H186        H  0.07045242  0.37811875  0.80776946     0.07110
N187        N  0.19815195  0.37651633  0.74292903    -0.25880
N188        N  0.16574480  0.41540027  0.89450687    -0.25490
N189        N  0.12422484  0.24240846  0.81689967     0.01550
C190        C  0.29171658  0.40433265  0.76967748     0.42940
C191        C  0.12152447  0.28475756  0.98524102    -0.06740
N192        N  0.12300438  0.39051001  0.81659897    -0.25490
H193        H  0.14946446  0.42941174  0.96144041     0.07090
N194        N  0.27174164  0.36562035  0.78852235    -0.46710
H195        H  0.12181658  0.25651585  0.99650636     0.07080
C196        C  0.02933846  0.26494350  0.91777796     0.42780
C197        C  0.22122060  0.27524860  0.88631849    -0.06240
Co198      Co  0.12256044  0.26815118  0.88096539     0.73820
N199        N  0.12313285  0.34773113  0.98262848    -0.46430
C200        C  0.20042365  0.35615019  0.67183429     0.43040
N201        N  0.09903172  0.21177376  0.79789369    -0.46420
Co202      Co  0.12160753  0.36250520  0.88061900     0.73890
C203        C  0.09769614  0.39189826  0.79440984    -0.06750
C204        C  0.27322038  0.42747417  0.78750316    -0.06310
N205        N  0.15386064  0.25867582  0.78950071    -0.25840
N206        N  0.22079705  0.46136032  0.88757082    -0.46600
H207        H  0.19792051  0.41668170  0.68845558     0.07050
C208        C  0.04826369  0.24364739  0.89660692    -0.06720
Cl209      Cl  0.16007294  0.33659944  0.84245210    -0.49720
C210        C  0.12344102  0.31902167  0.01180601     0.42810
H211        H  0.16935961  0.24624647  0.72145194     0.07020
N212        N  0.04777074  0.30433306  0.89952397    -0.46430
C213        C  0.44912492  0.36528037  0.92447750     0.42660
N214        N  0.48584978  0.41090390  0.96433878     0.01550
C215        C  0.95924866  0.01300943  0.14886216    -0.06330
H216        H  0.37936048  0.49479872  0.07066428     0.07040
C217        C  0.48543883  0.08389991  0.91166448    -0.06680
Co218      Co  0.45585374  0.42923239  0.05219868     0.74180
N219        N  0.41301938  0.47213195  0.03822591    -0.25860
Co220      Co  0.45903570  0.02576569  0.04404937     0.74070
C221        C  0.44923928  0.07678065  0.91699543     0.42760
N222        N  0.02979724  0.02614892  0.90847956     0.01160
N223        N  0.46032891  0.05210043  0.97839332     0.01270
N224        N  0.95863262  0.45080418  0.15348833    -0.46710
H225        H  0.40328327  0.35697070  0.97876230     0.07030
N226        N  0.41167946  0.43503807  0.04072815     0.01550
N227        N  0.00578974  0.07771827  0.05552993     0.01290
C228        C  0.04592306  0.12194356  0.09268124     0.42900
N229        N  0.02922394  0.48964152  0.91236298    -0.25310
C230        C  0.00495430  0.41223009  0.11014535    -0.06230
N231        N  0.48277517  0.39168298  0.92550923    -0.46420
N232        N  0.01153109  0.09623950  0.09509368    -0.46640
C233        C  0.04135276  0.42075573  0.10534319     0.42670
N234        N  0.45708150  0.46180071  0.11058325     0.01540
N235        N  0.07608325  0.01657449  0.98056542    -0.25340
N236        N  0.45599113  0.39930356  0.99028121    -0.25830
N237        N  0.07802381  0.05358397  0.97387268     0.01180
H238        H  0.10977613  0.99067382  0.95764194     0.07070
H239        H  0.08861847  0.13028497  0.03378657     0.07110
N240        N  0.45818832  0.99849845  0.10698721    -0.25880
N241        N  0.48969791  0.06716504  0.95057473    -0.25490
N242        N  0.02917910  0.43890390  0.04123071     0.01550
C243        C  0.36261251  0.42608147  0.07760557     0.42940
C244        C  0.52442226  0.47307965  0.87155372    -0.06740
N245        N  0.03469116  0.08930594  0.02704990    -0.25490
H246        H  0.50483308  0.09695072  0.88191679     0.07090
N247        N  0.38205384  0.40729350  0.06358727    -0.46710
H248        H  0.52201683  0.44313933  0.86358478     0.07080
C249        C  0.12640719  0.05844751  0.93856768     0.42780
C250        C  0.43088012  0.37092497  0.96751674    -0.06240
Co251      Co  0.03047460  0.46356836  0.97540489     0.73820
N252        N  0.52473648  0.03531720  0.86676075    -0.46430
C253        C  0.95956242  0.98146382  0.17958272     0.43040
N254        N  0.05478715  0.43727794  0.06141565    -0.46420
Co255      Co  0.03333658  0.06002922  0.96533366     0.73890
C256        C  0.06148943  0.11696772  0.04759689    -0.06750
C257        C  0.38259725  0.46875438  0.05839260    -0.06310
N258        N  0.99991048  0.42477508  0.06919879    -0.25840
N259        N  0.43516927  0.05614881  0.95931093    -0.46600
H260        H  0.96122832  0.04284527  0.15660044     0.07050
C261        C  0.10623557  0.01779739  0.96276992    -0.06720
Cl262      Cl  0.99458637  0.99463646  0.00924406    -0.49720
C263        C  0.52141347  0.50318098  0.84208589     0.42810
H264        H  0.98572292  0.40000707  0.14019637     0.07020
N265        N  0.10760595  0.07897491  0.94870426    -0.46430
C266        C  0.44407891  0.37243777  0.41665431     0.42660
N267        N  0.48383299  0.41695751  0.45353000     0.01550
C268        C  0.96144218  0.00797556  0.64864009    -0.06330
H269        H  0.38503725  0.50198523  0.57236280     0.07040
C270        C  0.48884251  0.08745671  0.41329439    -0.06680
Co271      Co  0.45634614  0.42978884  0.54621876     0.74180
N272        N  0.41488354  0.47568030  0.53769977    -0.25860
Co273      Co  0.46172856  0.02715418  0.54477763     0.74070
C274        C  0.45268099  0.08006417  0.41906501     0.42760
N275        N  0.03526824  0.03562770  0.40579947     0.01160
N276        N  0.46405589  0.05619750  0.48053294     0.01270
N277        N  0.95934841  0.44461673  0.64711067    -0.46710
H278        H  0.40168503  0.36029995  0.47760708     0.07030
N279        N  0.41189980  0.43782300  0.53998618     0.01550
N280        N  0.00799081  0.07723215  0.55863438     0.01290
C281        C  0.04642284  0.12133020  0.59796831     0.42900
N282        N  0.03269304  0.49817535  0.40592887    -0.24950
C283        C  0.00552681  0.40599804  0.59757870    -0.06230
N284        N  0.47817765  0.39946740  0.41349061    -0.46420
N285        N  0.01248564  0.09448318  0.59889294    -0.46640
C286        C  0.04174890  0.41335714  0.59023430     0.42670
N287        N  0.45883170  0.45921741  0.60570861     0.01540
N288        N  0.07728380  0.01771127  0.47592410    -0.25340
N289        N  0.45518781  0.40369049  0.48280801    -0.25830
N290        N  0.08023147  0.05549940  0.47501381     0.01180
H291        H  0.10861997  0.99225040  0.44415753     0.07070
H292        H  0.09028839  0.13393081  0.53864183     0.07110
N293        N  0.46054222  0.99632773  0.60547543    -0.25880
N294        N  0.49336006  0.07143336  0.45249611    -0.25490
N295        N  0.02894757  0.43711281  0.53010458     0.01550
C296        C  0.36450053  0.43242472  0.57999783     0.42940
C297        C  0.53269637  0.48722641  0.36240829    -0.06740
N298        N  0.03719870  0.09045786  0.53061831    -0.25490
H299        H  0.50829742  0.10119321  0.38366985     0.07090
N300        N  0.38240794  0.41174918  0.56514662    -0.46710
H301        H  0.53006379  0.45785210  0.35178597     0.07080
C302        C  0.12831645  0.06203606  0.43636684     0.42780
C303        C  0.42859354  0.37553520  0.46262539    -0.06240
Co304      Co  0.03072196  0.46667116  0.46687970     0.73820
N305        N  0.53632584  0.05098083  0.36393157    -0.46430
C306        C  0.96108898  0.97390104  0.67540987     0.43040
N307        N  0.05472408  0.43347951  0.54769980    -0.46420
Co308      Co  0.03672356  0.06420578  0.46664175     0.73890
C309        C  0.06309687  0.11850143  0.55235017    -0.06750
C310        C  0.38582152  0.47465014  0.55971747    -0.06310
N311        N  0.00007256  0.42199462  0.55898510    -0.25840
N312        N  0.43887329  0.06007629  0.46165490    -0.46600
H313        H  0.96352552  0.03715480  0.65956558     0.07050
C314        C  0.10701735  0.01939764  0.45569606    -0.06720
Cl315      Cl  0.49633295  0.99693008  0.50608164    -0.49720
C316        C  0.53524877  0.52230136  0.33469693     0.42810
H317        H  0.98709300  0.39319649  0.62838058     0.07020
N318        N  0.11023143  0.08221294  0.45199524    -0.46430
C319        C  0.46041147  0.99002445  0.75473749    -0.12070
C320        C  0.97619311  0.97888464  0.71779021     0.04940
C321        C  0.00749233  0.47650147  0.72103498    -0.07350
C322        C  0.51993855  0.48079154  0.76399972    -0.08100
C323        C  0.50478107  0.49343179  0.80042195    -0.02650
C324        C  0.47504304  0.99826527  0.79571765     0.04170
N325        N  0.46258305  0.01754811  0.82909824     0.66670
H326        H  0.43751383  0.99418229  0.75109473     0.15570
H327        H  0.54351157  0.47843640  0.76783595     0.15280
N328        N  0.02911492  0.47512508  0.68107417     0.74380
O329        O  0.46623130  0.05296665  0.81820259    -0.39070
O330        O  0.44718259  0.99926519  0.86800611    -0.39020
O331        O  0.03095823  0.49373270  0.64304511    -0.39720
O332        O  0.55294400  0.46549594  0.68700301    -0.39790
C333        C  0.01189786  0.99584640  0.21492554    -0.12070
C334        C  0.97812072  0.99214433  0.22003802     0.04940
C335        C  0.46475300  0.00258085  0.26122038    -0.07350
C336        C  0.48559374  0.51476113  0.29721865    -0.08100
C337        C  0.51884701  0.51709486  0.29264025    -0.02650
C338        C  0.03297150  0.50878242  0.25073488     0.04170
N339        N  0.06826174  0.51414885  0.24341275     0.66670
H340        H  0.02204218  0.98933351  0.18219398     0.15570
H341        H  0.47542516  0.52126259  0.32994428     0.15280
N342        N  0.43025244  0.99966628  0.26817083     0.74380
O343        O  0.08023937  0.50812603  0.20448641    -0.39070
O344        O  0.08866032  0.02814321  0.27402205    -0.39020
O345        O  0.41306085  0.49690502  0.23463494    -0.39720
O346        O  0.41685983  0.00064237  0.30843398    -0.39790
C347        C  0.06476411  0.38048634  0.70233818    -0.12070
C348        C  0.09792324  0.41264505  0.70586343     0.04940
C349        C  0.11408523  0.44315229  0.66846758    -0.07350
C350        C  0.09648747  0.44090151  0.62923884    -0.08100
C351        C  0.06255086  0.40946957  0.62675165    -0.02650
C352        C  0.04711802  0.37821428  0.66346976     0.04170
N353        N  0.01400921  0.34319027  0.66137595     0.66670
H354        H  0.05259668  0.35621052  0.72985933     0.15570
H355        H  0.10844822  0.46554208  0.60208577     0.15280
N356        N  0.14653738  0.47880721  0.67167723     0.74380
O357        O  0.49489910  0.32443090  0.69827019    -0.39070
O358        O  0.00659716  0.32679172  0.62346416    -0.39020
O359        O  0.17399200  0.47519423  0.67270495    -0.39720
O360        O  0.14864138  0.51437753  0.66665678    -0.39790
C361        C  0.06041824  0.17127683  0.71496621    -0.12070
C362        C  0.09509999  0.18069113  0.71881842     0.04940
C363        C  0.11303611  0.16848499  0.68386837    -0.07350
C364        C  0.09692049  0.15021831  0.64465166    -0.08100
C365        C  0.06272359  0.14245589  0.63956788    -0.02650
C366        C  0.04404624  0.15245746  0.67600774     0.04170
N367        N  0.00898107  0.14542448  0.67345932     0.66670
H368        H  0.04640904  0.18049880  0.74134740     0.15570
H369        H  0.11102518  0.14093087  0.61850183     0.15280
N370        N  0.14713607  0.17289516  0.68850749     0.74380
O371        O  0.48737548  0.13364871  0.70954777    -0.39070
O372        O  0.00104784  0.15700863  0.63723114    -0.39020
O373        O  0.15351954  0.16136861  0.72612814    -0.39720
O374        O  0.17027077  0.18559104  0.65411029    -0.39790
C375        C  0.31134636  0.44067051  0.68958979    -0.12070
C376        C  0.31194434  0.41176924  0.72191778     0.04940
C377        C  0.32763952  0.38680585  0.70545317    -0.07350
C378        C  0.34325438  0.39298039  0.65883730    -0.08100
C379        C  0.34301002  0.42243902  0.62700354    -0.02650
C380        C  0.32551198  0.44530425  0.64275018     0.04170
N381        N  0.32066737  0.47246337  0.61133230     0.66670
H382        H  0.29803453  0.45861627  0.69981152     0.15570
H383        H  0.35643916  0.37501327  0.64769431     0.15280
N384        N  0.32772056  0.35460584  0.73478959     0.74380
O385        O  0.31231585  0.46169167  0.57144912    -0.39070
O386        O  0.32084641  0.50513447  0.62522443    -0.39020
O387        O  0.32769322  0.32312519  0.71726088    -0.39720
O388        O  0.33045280  0.35860823  0.77750096    -0.39790
C389        C  0.16482001  0.35947763  0.56034536    -0.12070
C390        C  0.14727201  0.31720958  0.55352856     0.04940
C391        C  0.14965243  0.28840779  0.58382741    -0.07350
C392        C  0.17007456  0.30247183  0.61978954    -0.08100
C393        C  0.18694087  0.34471873  0.62736763    -0.02650
C394        C  0.18521717  0.37361605  0.59637828     0.04170
N395        N  0.20434436  0.41719374  0.60021644     0.66670
H396        H  0.16413363  0.38205373  0.53631256     0.15570
H397        H  0.17083245  0.27972479  0.64350732     0.15280
N398        N  0.13076834  0.24489220  0.57959039     0.74380
O399        O  0.23594937  0.43311643  0.60693822    -0.39070
O400        O  0.19055389  0.44027915  0.59262636    -0.39020
O401        O  0.14620026  0.22274432  0.58004845    -0.39720
O402        O  0.09853629  0.22835815  0.57644615    -0.39790
C403        C  0.12220235  0.31355022  0.09473716    -0.12070
C404        C  0.14194958  0.33016892  0.05198192     0.04940
C405        C  0.17872600  0.35403708  0.04858197    -0.07350
C406        C  0.19449726  0.35687931  0.08877464    -0.08100
C407        C  0.17486487  0.33888510  0.13104452    -0.02650
C408        C  0.13810953  0.31881912  0.13514701     0.04170
N409        N  0.11657228  0.30543580  0.17922466     0.66670
H410        H  0.09412716  0.29633162  0.09652601     0.15570
H411        H  0.22249858  0.37355102  0.08740738     0.15280
N412        N  0.20088094  0.37322257  0.00548572     0.74380
O413        O  0.08660572  0.30336283  0.18321987    -0.39070
O414        O  0.12635740  0.29395953  0.21375823    -0.39020
O415        O  0.19066329  0.36233716  0.96649350    -0.39720
O416        O  0.23243139  0.39867950  0.00638718    -0.39790
C417        C  0.04717289  0.41566113  0.18977997    -0.12070
C418        C  0.06100352  0.41753867  0.14344971     0.04940
C419        C  0.09298249  0.41627957  0.13493348    -0.07350
C420        C  0.10929294  0.41093274  0.17226699    -0.08100
C421        C  0.09554868  0.40924554  0.21859623    -0.02650
C422        C  0.06462500  0.41330469  0.22731089     0.04170
N423        N  0.05186498  0.41814061  0.27324611     0.66670
H424        H  0.02345138  0.41843117  0.19701571     0.15570
H425        H  0.13282162  0.40778580  0.16511479     0.15280
N426        N  0.10895593  0.41975898  0.08862275     0.74380
O427        O  0.02005795  0.40843986  0.28308073    -0.39070
O428        O  0.07297686  0.43940452  0.30068583    -0.39020
O429        O  0.12646228  0.45483649  0.06745675    -0.39720
O430        O  0.10822464  0.38826772  0.07039739    -0.39790
C431        C  0.08272789  0.12559384  0.15521043    -0.12070
C432        C  0.06380168  0.14214446  0.13341861     0.04940
C433        C  0.06020265  0.17561131  0.15295295    -0.07350
C434        C  0.07580147  0.19154562  0.19351826    -0.08100
C435        C  0.09537522  0.17558387  0.21467708    -0.02650
C436        C  0.09829862  0.14161847  0.19570140     0.04170
N437        N  0.11612507  0.12242069  0.21777974     0.66670
H438        H  0.08458907  0.09920591  0.14119240     0.15570
H439        H  0.07386741  0.21778534  0.20770409     0.15280
N440        N  0.04217837  0.19486749  0.13123952     0.74380
O441        O  0.12940032  0.10314730  0.19440537    -0.39070
O442        O  0.11537506  0.12075519  0.26136602    -0.39020
O443        O  0.04124410  0.19508821  0.08791513    -0.39720
O444        O  0.03026170  0.21550752  0.15455836    -0.39790
C445        C  0.36180885  0.41297047  0.16270347    -0.12070
C446        C  0.34452086  0.41709591  0.12583841     0.04940
C447        C  0.31269520  0.41810733  0.13613830    -0.07350
C448        C  0.29881241  0.41520074  0.18278183    -0.08100
C449        C  0.31596907  0.41093046  0.21992215    -0.02650
C450        C  0.34826460  0.41025694  0.20959116     0.04170
N451        N  0.36819870  0.40830224  0.24571760     0.66670
H452        H  0.38680098  0.41335865  0.15476624     0.15570
H453        H  0.27370717  0.41474603  0.19002904     0.15280
N454        N  0.29409230  0.42162959  0.09949953     0.74380
O455        O  0.39303318  0.39953909  0.23660295    -0.39070
O456        O  0.36305677  0.41847499  0.28600031    -0.39020
O457        O  0.29259600  0.40240032  0.06332833    -0.39720
O458        O  0.27977887  0.44491104  0.10266730    -0.39790
C459        C  0.39991605  0.04421643  0.86834087    -0.12070
C460        C  0.42958561  0.07955951  0.87806548     0.04940
C461        C  0.44365054  0.11395885  0.84503465    -0.07350
C462        C  0.42870585  0.11201971  0.80344026    -0.08100
C463        C  0.39984356  0.07617917  0.79289318    -0.02650
C464        C  0.38559859  0.04164419  0.82591499     0.04170
N465        N  0.35694040  0.00353137  0.81653278     0.66670
H466        H  0.38936529  0.01723212  0.89242527     0.15570
H467        H  0.43913101  0.13934521  0.77989244     0.15280
N468        N  0.47274501  0.15164241  0.85344000     0.74380
O469        O  0.33597169  0.97939773  0.84943566    -0.39070
O470        O  0.35460624  0.99187185  0.77576225    -0.39020
O471        O  0.50305738  0.15732252  0.83930369    -0.39720
O472        O  0.46789771  0.18239751  0.86313753    -0.39790
C473        C  0.15782181  0.05806692  0.80988665    -0.12070
C474        C  0.18742628  0.09611055  0.80303468     0.04940
C475        C  0.19851533  0.11944232  0.84236987    -0.07350
C476        C  0.17853669  0.10527813  0.88595651    -0.08100
C477        C  0.14838334  0.06754206  0.89270654    -0.02650
C478        C  0.13824644  0.04321070  0.85365074     0.04170
N479        N  0.10802174  0.00397457  0.85609632     0.66670
H480        H  0.14995767  0.03918341  0.78057907     0.15570
H481        H  0.18685438  0.12419072  0.91514392     0.15280
N482        N  0.23104465  0.15583437  0.84047491     0.74380
O483        O  0.08986680  0.99576600  0.82275688    -0.39070
O484        O  0.10711063  0.97417480  0.87987817    -0.39020
O485        O  0.23355096  0.18938550  0.82381658    -0.39720
O486        O  0.25174503  0.15724655  0.86886222    -0.39790
C487        C  0.42205095  0.36926036  0.85387363    -0.12070
C488        C  0.43551182  0.34828166  0.87999090     0.04940
C489        C  0.43963501  0.31507328  0.86010603    -0.07350
C490        C  0.42576350  0.30061848  0.81817962    -0.08100
C491        C  0.41123898  0.32080839  0.79299677    -0.02650
C492        C  0.41146117  0.35722522  0.80965905     0.04170
N493        N  0.40294640  0.38343430  0.78137483     0.66670
H494        H  0.42151375  0.39658785  0.86716811     0.15570
H495        H  0.42652804  0.27346713  0.80468424     0.15280
N496        N  0.45757263  0.29557982  0.88152993     0.74380
O497        O  0.39692002  0.41119925  0.79931837    -0.39070
O498        O  0.40625929  0.38299871  0.73771992    -0.39020
O499        O  0.48210509  0.31588690  0.90496634    -0.39720
O500        O  0.45168701  0.25930577  0.87275920    -0.39790
C501        C  0.21286300  0.49555130  0.49641302    -0.12070
C502        C  0.23067195  0.48040539  0.46540235     0.04940
C503        C  0.26474778  0.48830721  0.47295984    -0.07350
C504        C  0.27922923  0.00923183  0.51192591    -0.08100
C505        C  0.26119014  0.02362941  0.54354234    -0.02650
C506        C  0.22795558  0.51808197  0.53435422     0.04170
N507        N  0.20962297  0.53610253  0.56172041     0.66670
H508        H  0.18705598  0.49053923  0.49037692     0.15570
H509        H  0.30508775  0.01430864  0.51759014     0.15280
N510        N  0.28463714  0.47411701  0.44275651     0.74380
O511        O  0.22571743  0.57263479  0.57335871    -0.39070
O512        O  0.17680897  0.51871778  0.56682455    -0.39020
O513        O  0.29319899  0.98773886  0.40081339    -0.39720
O514        O  0.29967727  0.45536502  0.45981488    -0.39790
C515        C  0.00157428  0.21455517  0.53548468    -0.12070
C516        C  0.48382916  0.23754745  0.54756287     0.04940
C517        C  0.47971537  0.26138209  0.51158146    -0.07350
C518        C  0.49378616  0.26172961  0.46578617    -0.08100
C519        C  0.01211716  0.23931370  0.45385801    -0.02650
C520        C  0.01533719  0.21478403  0.48975475     0.04170
N521        N  0.03200092  0.18927878  0.48132078     0.66670
H522        H  0.00454621  0.19551404  0.56189048     0.15570
H523        H  0.49125568  0.28089472  0.43918709     0.15280
N524        N  0.46123809  0.28518564  0.52003709     0.74380
O525        O  0.06433460  0.20429367  0.48252843    -0.39070
O526        O  0.01381603  0.15072051  0.48673731    -0.39020
O527        O  0.47333647  0.31572655  0.54455483    -0.39720
O528        O  0.43874457  0.28253784  0.49401881    -0.39790
C529        C  0.28232339  0.28110820  0.51832057    -0.12070
C530        C  0.26635247  0.24555444  0.54882613     0.04940
C531        C  0.23328425  0.21413928  0.54059647    -0.07350
C532        C  0.21769606  0.21972556  0.50220718    -0.08100
C533        C  0.23446940  0.25458763  0.47050603    -0.02650
C534        C  0.26674105  0.28664649  0.48014089     0.04170
N535        N  0.28297160  0.32610796  0.45426583     0.66670
H536        H  0.30712637  0.30561450  0.52521663     0.15570
H537        H  0.19259690  0.19564740  0.49595525     0.15280
N538        N  0.21606245  0.17548676  0.56823658     0.74380
O539        O  0.26456941  0.34184224  0.44061248    -0.39070
O540        O  0.31521904  0.34892710  0.45386780    -0.39020
O541        O  0.23347018  0.15950561  0.58450239    -0.39720
O542        O  0.18356667  0.15385831  0.56966658    -0.39790
C543        C  0.37057797  0.15042608  0.93910911    -0.12070
C544        C  0.37922148  0.18834077  0.95758399     0.04940
C545        C  0.37675016  0.21984579  0.93198383    -0.07350
C546        C  0.36121275  0.21035441  0.89112107    -0.08100
C547        C  0.34638061  0.16971001  0.87716914    -0.02650
C548        C  0.35242942  0.13990749  0.90095585     0.04170
N549        N  0.34140179  0.09916949  0.88662518     0.66670
H550        H  0.37481070  0.12700053  0.95667062     0.15570
H551        H  0.35920289  0.23469127  0.87203926     0.15280
N552        N  0.38751987  0.26037596  0.94845225     0.74380
O553        O  0.35487603  0.09559825  0.84804447    -0.39070
O554        O  0.32961310  0.06908122  0.91657597    -0.39020
O555        O  0.41438511  0.27703433  0.96909475    -0.39720
O556        O  0.37104078  0.28040551  0.94069662    -0.39790
C557        C  0.34326338  0.16877412  0.37910946    -0.12070
C558        C  0.30864595  0.16197325  0.38679513     0.04940
C559        C  0.29370309  0.16420631  0.43101835    -0.07350
C560        C  0.31401466  0.17243702  0.46740264    -0.08100
C561        C  0.34857528  0.17895735  0.45987373    -0.02650
C562        C  0.36392423  0.17747517  0.41531818     0.04170
N563        N  0.39977190  0.18507610  0.40583078     0.66670
H564        H  0.35406058  0.16714877  0.34438794     0.15570
H565        H  0.30282307  0.17369692  0.50203946     0.15280
N566        N  0.25816331  0.15712790  0.43979905     0.74380
O567        O  0.41899235  0.19151644  0.43780021    -0.39070
O568        O  0.41278399  0.18621025  0.36468303    -0.39020
O569        O  0.24093753  0.14161184  0.47879767    -0.39720
O570        O  0.24452259  0.16877715  0.41001280    -0.39790
C571        C  0.44794341  0.09382532  0.33562458    -0.12070
C572        C  0.43307721  0.08634616  0.38229025     0.04940
C573        C  0.39953188  0.08360314  0.39216916    -0.07350
C574        C  0.38094968  0.08488784  0.35541351    -0.08100
C575        C  0.39533808  0.09099993  0.30859890    -0.02650
C576        C  0.42986654  0.09645467  0.29891593     0.04170
N577        N  0.44712903  0.10406793  0.25239002     0.66670
H578        H  0.47364873  0.09638881  0.32697030     0.15570
H579        H  0.35541816  0.08287061  0.36394589     0.15280
N580        N  0.38466560  0.08193062  0.43903750     0.74380
O581        O  0.47888896  0.12971220  0.24429725    -0.39070
O582        O  0.43274858  0.08053830  0.22126724    -0.39020
O583        O  0.40335458  0.10459705  0.46794839    -0.39720
O584        O  0.35209854  0.06386052  0.44927606    -0.39790
C585        C  0.15047556  0.04182477  0.36223714    -0.12070
C586        C  0.14786070  0.07287576  0.38819976     0.04940
C587        C  0.15878815  0.11197100  0.36476987    -0.07350
C588        C  0.17119398  0.11867075  0.31724445    -0.08100
C589        C  0.17362858  0.08758737  0.29131375    -0.02650
C590        C  0.16216240  0.04823796  0.31440039     0.04170
N591        N  0.16156820  0.01405389  0.28981609     0.66670
H592        H  0.14210416  0.01144786  0.37837885     0.15570
H593        H  0.17998537  0.14922553  0.30124957     0.15280
N594        N  0.15795447  0.14567271  0.38860948     0.74380
O595        O  0.16825114  0.98775775  0.30947391    -0.39070
O596        O  0.15049558  0.00741747  0.25060504    -0.39020
O597        O  0.17053629  0.15462652  0.42663382    -0.39720
O598        O  0.14816065  0.16924375  0.36933100    -0.39790
C599        C  0.39384994  0.34928752  0.37071808    -0.12070
C600        C  0.42611707  0.35092141  0.37677870     0.04940
C601        C  0.44142933  0.33438918  0.34322442    -0.07350
C602        C  0.42471197  0.31874364  0.30363366    -0.08100
C603        C  0.39245883  0.31710912  0.29745576    -0.02650
C604        C  0.37651676  0.33253668  0.33171939     0.04170
N605        N  0.34357055  0.33261682  0.32762183     0.66670
H606        H  0.38249165  0.36235639  0.39621398     0.15570
H607        H  0.43614762  0.30556716  0.27838308     0.15280
N608        N  0.47255282  0.33085779  0.34977194     0.74380
O609        O  0.32802096  0.34079922  0.36172494    -0.39070
O610        O  0.33144621  0.32896256  0.28926376    -0.39020
O611        O  0.48037474  0.32827516  0.38999770    -0.39720
O612        O  0.48944854  0.32402902  0.31603644    -0.39790
C613        C  0.26833621  0.04666645  0.00537522    -0.12070
C614        C  0.25725507  0.02482086  0.04931751     0.04940
C615        C  0.22770287  0.48547034  0.05334452    -0.07350
C616        C  0.21223935  0.46856305  0.01318267    -0.08100
C617        C  0.22448575  0.48910191  0.96877602    -0.02650
C618        C  0.25151789  0.03023110  0.96555042     0.04170
N619        N  0.25960457  0.05743869  0.92466915     0.66670
H620        H  0.28955334  0.07772833  0.00237816     0.15570
H621        H  0.19014562  0.43828264  0.01678166     0.15280
N622        N  0.21268312  0.46166919  0.09711241     0.74380
O623        O  0.26947067  0.09547388  0.92863053    -0.39070
O624        O  0.25690434  0.04416987  0.88466207    -0.39020
O625        O  0.18155751  0.43399147  0.10184552    -0.39720
O626        O  0.23083004  0.46489371  0.12958080    -0.39790
C627        C  0.48584638  0.21271636  0.04001957    -0.12070
C628        C  0.48170856  0.24419379  0.06285418     0.04940
C629        C  0.49399704  0.28274237  0.03747378    -0.07350
C630        C  0.50813505  0.28793168  0.99047292    -0.08100
C631        C  0.01109315  0.25586173  0.96702246    -0.02650
C632        C  0.99995471  0.21791393  0.99328734     0.04170
N633        N  0.00099399  0.18308180  0.97314796     0.66670
H634        H  0.97702808  0.18278659  0.05768957     0.15570
H635        H  0.51786934  0.31804951  0.97262071     0.15280
N636        N  0.49280407  0.31729388  0.05887211     0.74380
O637        O  0.02164631  0.17043516  0.98617503    -0.39070
O638        O  0.97522963  0.15885591  0.95392311    -0.39020
O639        O  0.50270654  0.32611420  0.09848765    -0.39720
O640        O  0.48534520  0.34150382  0.03630902    -0.39790
C641        C  0.24705311  0.23214258  0.95904294    -0.12070
C642        C  0.22049860  0.24339300  0.96986054     0.04940
C643        C  0.21012757  0.24517263  0.01726732    -0.07350
C644        C  0.22813999  0.23913459  0.05185816    -0.08100
C645        C  0.25614639  0.23059840  0.04076023    -0.02650
C646        C  0.26403854  0.22398057  0.99397086     0.04170
N647        N  0.28712481  0.20637799  0.98153192     0.66670
H648        H  0.25371591  0.22828877  0.92313779     0.15570
H649        H  0.22150849  0.24367658  0.08754697     0.15280
N650        N  0.18423431  0.25799424  0.03057286     0.74380
O651        O  0.28819149  0.17968771  0.00875234    -0.39070
O652        O  0.30045409  0.21053296  0.94004009    -0.39020
O653        O  0.16410844  0.24325276  0.06780863    -0.39720
O654        O  0.18663125  0.29010665  0.01046373    -0.39790
C655        C  0.38102105  0.68964218  0.00715804     0.42660
N656        N  0.36630761  0.70036963  0.07553876     0.01550
C657        C  0.33754214  0.58448537  0.27733232    -0.06330
H658        H  0.23371524  0.53643563  0.14981276     0.07040
C659        C  0.21415670  0.64099804  0.22331940    -0.06680
Co660      Co  0.36309105  0.63685671  0.14255460     0.74180
N661        N  0.28783028  0.57377966  0.15787460    -0.25860
Co662      Co  0.28774104  0.60176261  0.21996465     0.74070
C663        C  0.19387692  0.59848778  0.24379031     0.42760
N664        N  0.29217348  0.72079443  0.14396240     0.01160
N665        N  0.24341155  0.60707084  0.20832126     0.01270
N666        N  0.38681944  0.61051173  0.22782216    -0.46710
H667        H  0.38027881  0.62870971  0.03224985     0.07030
N668        N  0.31660049  0.58594458  0.12911179     0.01550
N669        N  0.28828412  0.63370576  0.27806911     0.01290
C670        C  0.28919452  0.65211101  0.34738153     0.42900
N671        N  0.32115893  0.73471913  0.11531771    -0.25310
C672        C  0.43947668  0.69239416  0.13158480    -0.06230
N673        N  0.37446469  0.71628336  0.03259414    -0.46420
N674        N  0.28842611  0.62175640  0.32103086    -0.46640
C675        C  0.45998198  0.73435922  0.10958992     0.42670
N676        N  0.36072750  0.61127270  0.20817727     0.01540
N677        N  0.36508204  0.76178699  0.19270416    -0.25340
N678        N  0.36638837  0.66443849  0.07962140    -0.25830
N679        N  0.33625648  0.74881134  0.22140143     0.01180
H680        H  0.41816968  0.80652354  0.19786094     0.07070
H681        H  0.29140323  0.71402476  0.32476368     0.07110
N682        N  0.33174749  0.59691754  0.23665143    -0.25880
N683        N  0.24477274  0.64395955  0.20472638    -0.25490
N684        N  0.41056647  0.72709900  0.14475500     0.01550
C685        C  0.27584071  0.54494246  0.09002841     0.42940
C686        C  0.31476806  0.74334320  0.07323831    -0.06740
N687        N  0.28948728  0.67045484  0.27447924    -0.25490
H688        H  0.21084604  0.66764804  0.23273072     0.07090
N689        N  0.31044244  0.56999363  0.08808603    -0.46710
H690        H  0.33314663  0.75335023  0.04222127     0.07080
C691        C  0.37503755  0.79570885  0.25727366     0.42780
C692        C  0.37556072  0.65499977  0.03837787    -0.06240
Co693      Co  0.36577733  0.73203984  0.13255456     0.73820
N694        N  0.26545764  0.71832995  0.12308155    -0.46430
C695        C  0.37426200  0.59359162  0.27168542     0.43040
N696        N  0.44040016  0.75370994  0.12112299    -0.46420
Co697      Co  0.29055355  0.69698559  0.21058367     0.73890
C698        C  0.28974395  0.68437321  0.31666754    -0.06750
C699        C  0.26079951  0.54826796  0.13628677    -0.06310
N700        N  0.40896628  0.69003652  0.14983947    -0.25840
N701        N  0.21353390  0.57963637  0.23076961    -0.46600
H702        H  0.31875831  0.57257815  0.30786553     0.07050
C703        C  0.39110653  0.79154362  0.21219881    -0.06720
Cl704      Cl  0.32697202  0.66706229  0.17669352    -0.49720
C705        C  0.27770454  0.73155987  0.07807398     0.42810
H706        H  0.44235890  0.66532685  0.12296689     0.07020
N707        N  0.34133206  0.76755014  0.26059609    -0.46430
C708        C  0.27874993  0.54514246  0.58421109     0.42660
N709        N  0.32027760  0.58610230  0.62192497     0.01550
C710        C  0.31803498  0.68950029  0.81282455    -0.06330
H711        H  0.22645722  0.67594867  0.74373742     0.07040
C712        C  0.32337719  0.75211005  0.57836668    -0.06680
Co713      Co  0.29740689  0.60146478  0.71604203     0.74180
N714        N  0.25677618  0.64878415  0.71149140    -0.25860
Co715      Co  0.30410175  0.70033110  0.71305832     0.74070
C716        C  0.28685787  0.74244079  0.58599086     0.42760
N717        N  0.37039427  0.70198029  0.57013456     0.01160
N718        N  0.30219836  0.72563241  0.64835549     0.01270
N719        N  0.31637228  0.62669192  0.81354389    -0.46710
H720        H  0.23783688  0.53372864  0.64726165     0.07030
N721        N  0.25362865  0.61095463  0.71422024     0.01550
N722        N  0.35130367  0.75222415  0.72078839     0.01290
C723        C  0.39227186  0.80045363  0.75312547     0.42900
N724        N  0.36807199  0.66468681  0.57136795    -0.25310
C725        C  0.34377163  0.56990618  0.75980487    -0.06230
N726        N  0.31325536  0.56979888  0.58143298    -0.46420
N727        N  0.35824834  0.77314097  0.75859274    -0.46640
C728        C  0.38024244  0.57835468  0.75361779     0.42670
N729        N  0.30637447  0.63517005  0.77491462     0.01540
N730        N  0.41547615  0.68681482  0.63797607    -0.25340
N731        N  0.29220126  0.57394723  0.65217643    -0.25830
N732        N  0.41845284  0.72467174  0.63562669     0.01180
H733        H  0.44554128  0.66057276  0.60386619     0.07070
H734        H  0.43262892  0.80859995  0.69092830     0.07110
N735        N  0.30818517  0.67240083  0.77329377    -0.25880
N736        N  0.33036328  0.73980668  0.61805048    -0.25490
N737        N  0.36874337  0.60679210  0.69579121     0.01550
C738        C  0.20783081  0.60693395  0.75603520     0.42940
C739        C  0.36566818  0.65170872  0.52862573    -0.06740
N740        N  0.37898911  0.76357513  0.69037717    -0.25490
H741        H  0.34085288  0.76325613  0.54655589     0.07090
N742        N  0.22475574  0.58546148  0.74062031    -0.46710
H743        H  0.36218547  0.62175755  0.51898168     0.07080
C744        C  0.46527962  0.72988549  0.59562145     0.42780
C745        C  0.26455857  0.54755359  0.63175700    -0.06240
Co746      Co  0.36841474  0.63542856  0.63251026     0.73820
N747        N  0.36911699  0.71534211  0.52831718    -0.46430
C748        C  0.32463190  0.65990245  0.83883101     0.43040
N749        N  0.39414876  0.60166505  0.71272433    -0.46420
Co750      Co  0.37477221  0.73335060  0.62912045     0.73890
C751        C  0.40629268  0.79370545  0.70773403    -0.06750
C752        C  0.22823626  0.64845112  0.73419341    -0.06310
N753        N  0.33971458  0.59028358  0.72408210    -0.25840
N754        N  0.27522039  0.72611473  0.63043298    -0.46600
H755        H  0.32204265  0.71996327  0.82092827     0.07050
C756        C  0.44454769  0.68784976  0.61637209    -0.06720
Cl757      Cl  0.33617575  0.66762679  0.67280614    -0.49720
C758        C  0.36671165  0.68547576  0.50027078     0.42810
H759        H  0.32401061  0.55373957  0.78855212     0.07020
N760        N  0.44776451  0.75068941  0.61069415    -0.46430
C761        C  0.21704392  0.75629267  0.42881360     0.42660
N762        N  0.17673910  0.75598164  0.39017743     0.01550
C763        C  0.19575905  0.88031926  0.19963567    -0.06330
H764        H  0.27938250  0.95126161  0.27244941     0.07040
C765        C  0.17511013  0.92248082  0.43506794    -0.06680
Co766      Co  0.20354961  0.80217355  0.29764313     0.74180
N767        N  0.24641678  0.89201928  0.30711261    -0.25860
Co768      Co  0.19994450  0.89509170  0.30232910     0.74070
C769        C  0.21147667  0.95347668  0.42885015     0.42760
N770        N  0.12750059  0.81908228  0.44078313     0.01160
N771        N  0.19911127  0.91926604  0.36745195     0.01270
N772        N  0.19654323  0.81868055  0.19667171    -0.46710
H773        H  0.25906698  0.79080460  0.36708702     0.07030
N774        N  0.24807782  0.85662215  0.30588846     0.01550
N775        N  0.15345808  0.89705243  0.29105892     0.01290
C776        C  0.11361552  0.90234222  0.25655962     0.42900
N777        N  0.13019235  0.78454687  0.43950294    -0.25310
C778        C  0.15310286  0.72883839  0.24481134    -0.06230
N779        N  0.18272347  0.74483264  0.43079256    -0.46420
N780        N  0.14764329  0.91155456  0.25234949    -0.46640
C781        C  0.11656336  0.69837469  0.25192641     0.42670
N782        N  0.20050750  0.83244050  0.23852149     0.01540
N783        N  0.08404521  0.75975687  0.37033438    -0.25340
N784        N  0.20525592  0.77442244  0.36074259    -0.25830
N785        N  0.08210460  0.79491473  0.37172924     0.01180
H786        H  0.04938167  0.69833780  0.39715249     0.07070
H787        H  0.07161831  0.86500625  0.31719567     0.07110
N788        N  0.19936862  0.86796644  0.24107550    -0.25880
N789        N  0.16998924  0.90243459  0.39597675    -0.25490
N790        N  0.13061288  0.73194628  0.31345830     0.01550
C791        C  0.29702055  0.90131433  0.26784452     0.42940
C792        C  0.13292398  0.77335081  0.48222386    -0.06740
N793        N  0.12499754  0.87807595  0.32035313    -0.25490
H794        H  0.15618700  0.91483986  0.46527083     0.07090
N795        N  0.27779703  0.86140508  0.28326830    -0.46710
H796        H  0.13627736  0.74671166  0.49153407     0.07080
C797        C  0.03246352  0.74910552  0.40665960     0.42780
C798        C  0.23211066  0.77563855  0.38171047    -0.06240
Co799      Co  0.13019685  0.75698961  0.37788634     0.73820
N800        N  0.12811129  0.83245687  0.48258609    -0.46430
C801        C  0.19361409  0.84769991  0.17083557     0.43040
N802        N  0.10409651  0.70256666  0.29514302    -0.46420
Co803      Co  0.12596679  0.84920271  0.38173906     0.73890
C804        C  0.09841515  0.87956859  0.30174749    -0.06750
C805        C  0.27648525  0.92179637  0.28563046    -0.06310
N806        N  0.15932313  0.74852161  0.28423731    -0.25840
N807        N  0.22476849  0.94966939  0.38591306    -0.46600
H808        H  0.19253232  0.90725763  0.19156330     0.07050
C809        C  0.05324119  0.72908998  0.38813018    -0.06720
Cl810      Cl  0.16499109  0.82589536  0.33989399    -0.49720
C811        C  0.13145922  0.80520031  0.51075177     0.42810
H812        H  0.17116201  0.73687890  0.21359876     0.07020
N813        N  0.05165524  0.78934601  0.39232594    -0.46430
C814        C  0.20408931  0.75281453  0.93128692     0.42660
N815        N  0.16746615  0.76378204  0.89533955     0.01550
C816        C  0.19885833  0.88874956  0.69915557    -0.06330
H817        H  0.27682285  0.95698188  0.77346480     0.07040
C818        C  0.16952752  0.93629882  0.93280125    -0.06680
Co819      Co  0.19819037  0.81053934  0.80400731     0.74180
N820        N  0.24315527  0.89981874  0.81153929    -0.25860
Co821      Co  0.19763788  0.90499801  0.80366339     0.74070
C822        C  0.20596266  0.96697023  0.92873475     0.42760
N823        N  0.12174179  0.83308548  0.94132552     0.01160
N824        N  0.19574642  0.93101603  0.86792866     0.01270
N825        N  0.20066742  0.82781315  0.70179807    -0.46710
H826        H  0.24792948  0.78636148  0.87136579     0.07030
N827        N  0.24336519  0.86351031  0.81249377     0.01550
N828        N  0.15247346  0.90843846  0.78886267     0.01290
C829        C  0.11476049  0.91283673  0.74856181     0.42900
N830        N  0.12177015  0.79684937  0.94167720    -0.25310
C831        C  0.14967107  0.73855179  0.75070774    -0.06230
N832        N  0.17086370  0.74681128  0.93409319    -0.46420
N833        N  0.14846030  0.92150527  0.74803010    -0.46640
C834        C  0.11352518  0.70718718  0.75605510     0.42670
N835        N  0.19912518  0.84091093  0.74340396     0.01540
N836        N  0.07738907  0.77273842  0.87253537    -0.25340
N837        N  0.19661924  0.78090805  0.86692177    -0.25830
N838        N  0.07616748  0.80840190  0.87352908     0.01180
H839        H  0.04689393  0.71491692  0.90904571     0.07070
H840        H  0.07045247  0.87811891  0.80776960     0.07110
N841        N  0.19815195  0.87651633  0.74292904    -0.25880
N842        N  0.16574483  0.91540028  0.89450689    -0.25490
N843        N  0.12422484  0.74240847  0.81689968     0.01550
C844        C  0.29171658  0.90433265  0.76967749     0.42940
C845        C  0.12152445  0.78475756  0.98524103    -0.06740
N846        N  0.12300441  0.89051006  0.81659902    -0.25490
H847        H  0.14946448  0.92941176  0.96144043     0.07090
N848        N  0.27174164  0.86562034  0.78852236    -0.46710
H849        H  0.12181655  0.75651584  0.99650637     0.07080
C850        C  0.02933846  0.76494353  0.91777795     0.42780
C851        C  0.22122059  0.77524860  0.88631851    -0.06240
Co852      Co  0.12256044  0.76815119  0.88096540     0.73820
N853        N  0.12313286  0.84773114  0.98262850    -0.46430
C854        C  0.20042364  0.85615018  0.67183431     0.43040
N855        N  0.09903172  0.71177377  0.79789369    -0.46420
Co856      Co  0.12160754  0.86250522  0.88061902     0.73890
C857        C  0.09769617  0.89189837  0.79440994    -0.06750
C858        C  0.27322039  0.92747417  0.78750317    -0.06310
N859        N  0.15386064  0.75867582  0.78950073    -0.25840
N860        N  0.22079707  0.96136034  0.88757084    -0.46600
H861        H  0.19792051  0.91668169  0.68845558     0.07050
C862        C  0.04826369  0.74364741  0.89660692    -0.06720
Cl863      Cl  0.16007295  0.83659945  0.84245211    -0.49720
C864        C  0.12344101  0.81902167  0.01180602     0.42810
H865        H  0.16935962  0.74624647  0.72145196     0.07020
N866        N  0.04777075  0.80433308  0.89952398    -0.46430
C867        C  0.44912493  0.86528038  0.92447748     0.42660
N868        N  0.48584978  0.91090390  0.96433876     0.01550
C869        C  0.95924865  0.51300944  0.14886218    -0.06330
H870        H  0.37936048  0.99479871  0.07066427     0.07040
C871        C  0.48543882  0.58389991  0.91166448    -0.06680
Co872      Co  0.45585375  0.92923239  0.05219867     0.74180
N873        N  0.41301938  0.97213195  0.03822590    -0.25860
Co874      Co  0.45903569  0.52576569  0.04404937     0.74070
C875        C  0.44923928  0.57678065  0.91699543     0.42760
N876        N  0.02979720  0.52614890  0.90847959     0.01160
N877        N  0.46032890  0.55210042  0.97839333     0.01270
N878        N  0.95863263  0.95080417  0.15348831    -0.46710
H879        H  0.40328327  0.85697071  0.97876228     0.07030
N880        N  0.41167946  0.93503807  0.04072814     0.01550
N881        N  0.00578973  0.57771828  0.05552994     0.01290
C882        C  0.04592305  0.62194357  0.09268124     0.42900
N883        N  0.02922397  0.98964153  0.91236295    -0.25310
C884        C  0.00495430  0.91223008  0.11014533    -0.06230
N885        N  0.48277517  0.89168299  0.92550921    -0.46420
N886        N  0.01153108  0.59623951  0.09509370    -0.46640
C887        C  0.04135277  0.92075573  0.10534317     0.42670
N888        N  0.45708149  0.96180070  0.11058325     0.01540
N889        N  0.07608324  0.51657450  0.98056543    -0.25340
N890        N  0.45599114  0.89930357  0.99028119    -0.25830
N891        N  0.07802380  0.55358398  0.97387268     0.01180
H892        H  0.10977612  0.49067384  0.95764192     0.07070
H893        H  0.08861846  0.63028498  0.03378657     0.07110
N894        N  0.45818832  0.49849846  0.10698722    -0.25880
N895        N  0.48969790  0.56716504  0.95057473    -0.25490
N896        N  0.02917910  0.93890389  0.04123069     0.01550
C897        C  0.36261251  0.92608147  0.07760555     0.42940
C898        C  0.52442229  0.97307967  0.87155370    -0.06740
N899        N  0.03469115  0.58930595  0.02704991    -0.25490
H900        H  0.50483307  0.59695071  0.88191679     0.07090
N901        N  0.38205385  0.90729350  0.06358726    -0.46710
H902        H  0.52201686  0.94313936  0.86358476     0.07080
C903        C  0.12640718  0.55844753  0.93856768     0.42780
C904        C  0.43088013  0.87092497  0.96751672    -0.06240
Co905      Co  0.03047461  0.96356835  0.97540486     0.73820
N906        N  0.52473644  0.53531717  0.86676076    -0.46430
C907        C  0.95956242  0.48146384  0.17958274     0.43040
N908        N  0.05478716  0.93727793  0.06141563    -0.46420
Co909      Co  0.03333656  0.56002922  0.96533367     0.73890
C910        C  0.06148942  0.61696773  0.04759689    -0.06750
C911        C  0.38259726  0.96875438  0.05839259    -0.06310
N912        N  0.99991048  0.92477507  0.06919877    -0.25840
N913        N  0.43516927  0.55614882  0.95931093    -0.46600
H914        H  0.96122831  0.54284528  0.15660046     0.07050
C915        C  0.10623557  0.51779740  0.96276991    -0.06720
Cl916      Cl  0.99458636  0.49463646  0.00924408    -0.49720
C917        C  0.52141352  0.00318101  0.84208587     0.42810
H918        H  0.98572292  0.90000707  0.14019635     0.07020
N919        N  0.10760593  0.57897492  0.94870426    -0.46430
C920        C  0.44407890  0.87243776  0.41665433     0.42660
N921        N  0.48383298  0.91695750  0.45353002     0.01550
C922        C  0.96144217  0.50797549  0.64864009    -0.06330
H923        H  0.38503724  0.00198523  0.57236280     0.07040
C924        C  0.48884252  0.58745671  0.41329439    -0.06680
Co925      Co  0.45634612  0.92978885  0.54621877     0.74180
N926        N  0.41488353  0.97568030  0.53769977    -0.25860
Co927      Co  0.46172857  0.52715418  0.54477763     0.74070
C928        C  0.45268100  0.58006417  0.41906501     0.42760
N929        N  0.03526827  0.53562773  0.40579946     0.01160
N930        N  0.46405590  0.55619750  0.48053294     0.01270
N931        N  0.95934840  0.94461679  0.64711068    -0.46710
H932        H  0.40168502  0.86029995  0.47760709     0.07030
N933        N  0.41189979  0.93782300  0.53998618     0.01550
N934        N  0.00799082  0.57723212  0.55863440     0.01290
C935        C  0.04642285  0.62133017  0.59796833     0.42900
N936        N  0.03269301  0.99817533  0.40592890    -0.24950
C937        C  0.00552673  0.90599812  0.59757881    -0.06230
N938        N  0.47817764  0.89946739  0.41349063    -0.46420
N939        N  0.01248565  0.59448314  0.59889296    -0.46640
C940        C  0.04174881  0.91335720  0.59023446     0.42670
N941        N  0.45883169  0.95921742  0.60570862     0.01540
N942        N  0.07728383  0.51771128  0.47592408    -0.25340
N943        N  0.45518780  0.90369049  0.48280802    -0.25830
N944        N  0.08023150  0.55549940  0.47501380     0.01180
H945        H  0.10862000  0.49225042  0.44415750     0.07070
H946        H  0.09028840  0.63393082  0.53864184     0.07110
N947        N  0.46054223  0.49632772  0.60547542    -0.25880
N948        N  0.49336007  0.57143337  0.45249611    -0.25490
N949        N  0.02894752  0.93711282  0.53010467     0.01550
C950        C  0.36450052  0.93242472  0.57999783     0.42940
C951        C  0.53269636  0.98722640  0.36240830    -0.06740
N952        N  0.03719872  0.59045784  0.53061832    -0.25490
H953        H  0.50829743  0.60119322  0.38366985     0.07090
N954        N  0.38240793  0.91174918  0.56514663    -0.46710
H955        H  0.53006377  0.95785208  0.35178598     0.07080
C956        C  0.12831648  0.56203607  0.43636683     0.42780
C957        C  0.42859353  0.87553520  0.46262540    -0.06240
Co958      Co  0.03072193  0.96667115  0.46687975     0.73820
N959        N  0.53632586  0.55098084  0.36393157    -0.46430
C960        C  0.96108896  0.47390096  0.67540988     0.43040
N961        N  0.05472402  0.93347953  0.54769994    -0.46420
Co962      Co  0.03672358  0.56420579  0.46664175     0.73890
C963        C  0.06309688  0.61850142  0.55235018    -0.06750
C964        C  0.38582151  0.97465015  0.55971748    -0.06310
N965        N  0.00007250  0.92199465  0.55898516    -0.25840
N966        N  0.43887330  0.56007630  0.46165489    -0.46600
H967        H  0.96352547  0.53715471  0.65956559     0.07050
C968        C  0.10701738  0.51939765  0.45569604    -0.06720
Cl969      Cl  0.49633296  0.49693008  0.50608163    -0.49720
C970        C  0.53524875  0.02230134  0.33469694     0.42810
H971        H  0.98709291  0.89319661  0.62838068     0.07020
N972        N  0.11023145  0.58221296  0.45199523    -0.46430
C973        C  0.46041145  0.49002443  0.75473749    -0.12070
C974        C  0.97619302  0.47888453  0.71779026     0.04940
C975        C  0.00749251  0.97650176  0.72103482    -0.07350
C976        C  0.51993861  0.98079162  0.76399968    -0.08100
C977        C  0.50478111  0.99343184  0.80042193    -0.02650
C978        C  0.47504301  0.49826525  0.79571765     0.04170
N979        N  0.46258302  0.51754809  0.82909824     0.66670
H980        H  0.43751382  0.49418229  0.75109471     0.15570
H981        H  0.54351164  0.97843649  0.76783590     0.15280
N982        N  0.02911516  0.97512559  0.68107394     0.74380
O983        O  0.46623129  0.55296664  0.81820259    -0.39070
O984        O  0.44718257  0.49926520  0.86800611    -0.39020
O985        O  0.03095819  0.99373300  0.64304486    -0.39720
O986        O  0.55294409  0.96549611  0.68700294    -0.39790
C987        C  0.01189787  0.49584643  0.21492553    -0.12070
C988        C  0.97812073  0.49214436  0.22003803     0.04940
C989        C  0.46475301  0.50258087  0.26122038    -0.07350
C990        C  0.48559372  0.01476112  0.29721865    -0.08100
C991        C  0.51884699  0.01709484  0.29264025    -0.02650
C992        C  0.03297148  0.00878238  0.25073489     0.04170
N993        N  0.06826173  0.01414882  0.24341277     0.66670
H994        H  0.02204219  0.48933353  0.18219398     0.15570
H995        H  0.47542515  0.02126257  0.32994428     0.15280
N996        N  0.43025245  0.49966629  0.26817084     0.74380
O997        O  0.08023937  0.00812601  0.20448643    -0.39070
O998        O  0.08866034  0.52814324  0.27402202    -0.39020
O999        O  0.41306084  0.99690501  0.23463493    -0.39720
O1000       O  0.41685984  0.50064237  0.30843399    -0.39790
C1001       C  0.06476400  0.88048659  0.70233850    -0.12070
C1002       C  0.09792322  0.91264517  0.70586356     0.04940
C1003       C  0.11408525  0.94315228  0.66846760    -0.07350
C1004       C  0.09648745  0.94090147  0.62923888    -0.08100
C1005       C  0.06255075  0.90946965  0.62675186    -0.02650
C1006       C  0.04711786  0.87821452  0.66347014     0.04170
N1007       N  0.01400892  0.84319065  0.66137659     0.66670
H1008       H  0.05259654  0.85621086  0.72985974     0.15570
H1009       H  0.10844825  0.96554193  0.60208570     0.15280
N1010       N  0.14653747  0.97880713  0.67167710     0.74380
O1011       O  0.49489905  0.82443101  0.69827032    -0.39070
O1012       O  0.00659670  0.82679188  0.62346496    -0.39020
O1013       O  0.17399204  0.97519402  0.67270477    -0.39720
O1014       O  0.14864157  0.01437749  0.66665661    -0.39790
C1015       C  0.06041824  0.67127682  0.71496623    -0.12070
C1016       C  0.09509999  0.68069113  0.71881843     0.04940
C1017       C  0.11303611  0.66848498  0.68386839    -0.07350
C1018       C  0.09692050  0.65021831  0.64465167    -0.08100
C1019       C  0.06272360  0.64245588  0.63956790    -0.02650
C1020       C  0.04404624  0.65245744  0.67600776     0.04170
N1021       N  0.00898107  0.64542445  0.67345934     0.66670
H1022       H  0.04640904  0.68049878  0.74134741     0.15570
H1023       H  0.11102519  0.64093087  0.61850185     0.15280
N1024       N  0.14713608  0.67289516  0.68850751     0.74380
O1025       O  0.48737548  0.63364871  0.70954778    -0.39070
O1026       O  0.00104784  0.65700859  0.63723115    -0.39020
O1027       O  0.15351955  0.66136861  0.72612816    -0.39720
O1028       O  0.17027078  0.68559104  0.65411030    -0.39790
C1029       C  0.31134636  0.94067051  0.68958980    -0.12070
C1030       C  0.31194435  0.91176924  0.72191779     0.04940
C1031       C  0.32763953  0.88680586  0.70545318    -0.07350
C1032       C  0.34325438  0.89298039  0.65883730    -0.08100
C1033       C  0.34301001  0.92243902  0.62700355    -0.02650
C1034       C  0.32551197  0.94530425  0.64275020     0.04170
N1035       N  0.32066736  0.97246337  0.61133231     0.66670
H1036       H  0.29803452  0.95861626  0.69981153     0.15570
H1037       H  0.35643916  0.87501328  0.64769432     0.15280
N1038       N  0.32772057  0.85460584  0.73478960     0.74380
O1039       O  0.31231585  0.96169168  0.57144913    -0.39070
O1040       O  0.32084638  0.00513446  0.62522445    -0.39020
O1041       O  0.32769323  0.82312520  0.71726088    -0.39720
O1042       O  0.33045281  0.85860824  0.77750096    -0.39790
C1043       C  0.16482005  0.85947763  0.56034534    -0.12070
C1044       C  0.14727203  0.81720957  0.55352855     0.04940
C1045       C  0.14965244  0.78840778  0.58382741    -0.07350
C1046       C  0.17007455  0.80247181  0.61978955    -0.08100
C1047       C  0.18694088  0.84471872  0.62736764    -0.02650
C1048       C  0.18521721  0.87361604  0.59637827     0.04170
N1049       N  0.20434442  0.91719374  0.60021641     0.66670
H1050       H  0.16413370  0.88205373  0.53631252     0.15570
H1051       H  0.17083243  0.77972477  0.64350735     0.15280
N1052       N  0.13076835  0.74489219  0.57959039     0.74380
O1053       O  0.23594942  0.93311639  0.60693826    -0.39070
O1054       O  0.19055400  0.94027917  0.59262620    -0.39020
O1055       O  0.14620026  0.72274431  0.58004845    -0.39720
O1056       O  0.09853630  0.72835815  0.57644614    -0.39790
C1057       C  0.12220235  0.81355022  0.09473718    -0.12070
C1058       C  0.14194958  0.83016891  0.05198192     0.04940
C1059       C  0.17872600  0.85403707  0.04858197    -0.07350
C1060       C  0.19449727  0.85687930  0.08877464    -0.08100
C1061       C  0.17486487  0.83888510  0.13104452    -0.02650
C1062       C  0.13810953  0.81881913  0.13514702     0.04170
N1063       N  0.11657229  0.80543582  0.17922467     0.66670
H1064       H  0.09412716  0.79633162  0.09652602     0.15570
H1065       H  0.22249858  0.87355101  0.08740737     0.15280
N1066       N  0.20088094  0.87322255  0.00548571     0.74380
O1067       O  0.08660573  0.80336285  0.18321989    -0.39070
O1068       O  0.12635740  0.79395953  0.21375824    -0.39020
O1069       O  0.19066329  0.86233711  0.96649350    -0.39720
O1070       O  0.23243138  0.89867949  0.00638717    -0.39790
C1071       C  0.04717288  0.91566111  0.18977996    -0.12070
C1072       C  0.06100352  0.91753867  0.14344970     0.04940
C1073       C  0.09298250  0.91627957  0.13493348    -0.07350
C1074       C  0.10929295  0.91093275  0.17226699    -0.08100
C1075       C  0.09554868  0.90924554  0.21859622    -0.02650
C1076       C  0.06462499  0.91330468  0.22731089     0.04170
N1077       N  0.05186496  0.91814059  0.27324610     0.66670
H1078       H  0.02345137  0.91843115  0.19701570     0.15570
H1079       H  0.13282163  0.90778582  0.16511479     0.15280
N1080       N  0.10895595  0.91975899  0.08862275     0.74380
O1081       O  0.02005793  0.90843983  0.28308072    -0.39070
O1082       O  0.07297684  0.93940450  0.30068582    -0.39020
O1083       O  0.12646229  0.95483650  0.06745676    -0.39720
O1084       O  0.10822465  0.88826774  0.07039738    -0.39790
C1085       C  0.08272789  0.62559386  0.15521042    -0.12070
C1086       C  0.06380168  0.64214447  0.13341861     0.04940
C1087       C  0.06020265  0.67561132  0.15295295    -0.07350
C1088       C  0.07580147  0.69154564  0.19351826    -0.08100
C1089       C  0.09537522  0.67558388  0.21467708    -0.02650
C1090       C  0.09829863  0.64161849  0.19570139     0.04170
N1091       N  0.11612508  0.62242071  0.21777972     0.66670
H1092       H  0.08458908  0.59920593  0.14119238     0.15570
H1093       H  0.07386741  0.71778535  0.20770410     0.15280
N1094       N  0.04217836  0.69486750  0.13123953     0.74380
O1095       O  0.12940034  0.60314733  0.19440535    -0.39070
O1096       O  0.11537507  0.62075520  0.26136600    -0.39020
O1097       O  0.04124407  0.69508821  0.08791514    -0.39720
O1098       O  0.03026171  0.71550754  0.15455837    -0.39790
C1099       C  0.36180885  0.91297046  0.16270345    -0.12070
C1100       C  0.34452086  0.91709590  0.12583839     0.04940
C1101       C  0.31269521  0.91810733  0.13613828    -0.07350
C1102       C  0.29881242  0.91520074  0.18278181    -0.08100
C1103       C  0.31596907  0.91093046  0.21992213    -0.02650
C1104       C  0.34826460  0.91025693  0.20959114     0.04170
N1105       N  0.36819870  0.90830223  0.24571758     0.66670
H1106       H  0.38680098  0.91335863  0.15476622     0.15570
H1107       H  0.27370717  0.91474604  0.19002902     0.15280
N1108       N  0.29409230  0.92162960  0.09949951     0.74380
O1109       O  0.39303318  0.89953906  0.23660293    -0.39070
O1110       O  0.36305677  0.91847498  0.28600029    -0.39020
O1111       O  0.29259600  0.90240032  0.06332831    -0.39720
O1112       O  0.27977888  0.94491105  0.10266728    -0.39790
C1113       C  0.39991604  0.54421643  0.86834088    -0.12070
C1114       C  0.42958561  0.57955951  0.87806548     0.04940
C1115       C  0.44365054  0.61395885  0.84503464    -0.07350
C1116       C  0.42870584  0.61201970  0.80344025    -0.08100
C1117       C  0.39984355  0.57617915  0.79289318    -0.02650
C1118       C  0.38559858  0.54164419  0.82591500     0.04170
N1119       N  0.35694038  0.50353137  0.81653280     0.66670
H1120       H  0.38936528  0.51723212  0.89242528     0.15570
H1121       H  0.43913101  0.63934519  0.77989242     0.15280
N1122       N  0.47274501  0.65164240  0.85343999     0.74380
O1123       O  0.33597167  0.47939774  0.84943568    -0.39070
O1124       O  0.35460623  0.49187184  0.77576227    -0.39020
O1125       O  0.50305738  0.65732250  0.83930370    -0.39720
O1126       O  0.46789772  0.68239752  0.86313747    -0.39790
C1127       C  0.15782179  0.55806695  0.80988664    -0.12070
C1128       C  0.18742628  0.59611056  0.80303467     0.04940
C1129       C  0.19851534  0.61944231  0.84236988    -0.07350
C1130       C  0.17853669  0.60527813  0.88595652    -0.08100
C1131       C  0.14838332  0.56754208  0.89270653    -0.02650
C1132       C  0.13824641  0.54321074  0.85365072     0.04170
N1133       N  0.10802167  0.50397464  0.85609629     0.66670
H1134       H  0.14995763  0.53918345  0.78057905     0.15570
H1135       H  0.18685439  0.62419070  0.91514393     0.15280
N1136       N  0.23104466  0.65583434  0.84047492     0.74380
O1137       O  0.08986674  0.49576613  0.82275683    -0.39070
O1138       O  0.10711050  0.47417484  0.87987814    -0.39020
O1139       O  0.23355101  0.68938549  0.82381657    -0.39720
O1140       O  0.25174504  0.65724651  0.86886225    -0.39790
C1141       C  0.42205096  0.86926037  0.85387360    -0.12070
C1142       C  0.43551183  0.84828167  0.87999087     0.04940
C1143       C  0.43963501  0.81507328  0.86010602    -0.07350
C1144       C  0.42576350  0.80061848  0.81817961    -0.08100
C1145       C  0.41123899  0.82080839  0.79299675    -0.02650
C1146       C  0.41146118  0.85722523  0.80965903     0.04170
N1147       N  0.40294642  0.88343431  0.78137479     0.66670
H1148       H  0.42151377  0.89658786  0.86716807     0.15570
H1149       H  0.42652803  0.77346712  0.80468423     0.15280
N1150       N  0.45757263  0.79557982  0.88152993     0.74380
O1151       O  0.39692004  0.91119926  0.79931833    -0.39070
O1152       O  0.40625931  0.88299872  0.73771989    -0.39020
O1153       O  0.48210508  0.81588689  0.90496634    -0.39720
O1154       O  0.45168700  0.75930576  0.87275919    -0.39790
C1155       C  0.21286302  0.99555135  0.49641298    -0.12070
C1156       C  0.23067197  0.98040542  0.46540233     0.04940
C1157       C  0.26474779  0.98830721  0.47295984    -0.07350
C1158       C  0.27922922  0.50923183  0.51192592    -0.08100
C1159       C  0.26119012  0.52362938  0.54354236    -0.02650
C1160       C  0.22795560  0.01808202  0.53435418     0.04170
N1161       N  0.20962300  0.03610259  0.56172035     0.66670
H1162       H  0.18705602  0.99053929  0.49037686     0.15570
H1163       H  0.30508775  0.51430865  0.51759013     0.15280
N1164       N  0.28463715  0.97411699  0.44275652     0.74380
O1165       O  0.22571748  0.07263485  0.57335868    -0.39070
O1166       O  0.17680900  0.01871788  0.56682444    -0.39020
O1167       O  0.29319898  0.48773890  0.40081338    -0.39720
O1168       O  0.29967727  0.95536501  0.45981492    -0.39790
C1169       C  0.00157425  0.71455510  0.53548470    -0.12070
C1170       C  0.48382916  0.73754743  0.54756287     0.04940
C1171       C  0.47971538  0.76138209  0.51158146    -0.07350
C1172       C  0.49378618  0.76172962  0.46578618    -0.08100
C1173       C  0.01211718  0.73931371  0.45385805    -0.02650
C1174       C  0.01533718  0.71478400  0.48975477     0.04170
N1175       N  0.03200091  0.68927874  0.48132078     0.66670
H1176       H  0.00454616  0.69551393  0.56189048     0.15570
H1177       H  0.49125571  0.78089473  0.43918710     0.15280
N1178       N  0.46123812  0.78518565  0.52003711     0.74380
O1179       O  0.06433460  0.70429365  0.48252834    -0.39070
O1180       O  0.01381603  0.65072048  0.48673740    -0.39020
O1181       O  0.47333651  0.81572657  0.54455484    -0.39720
O1182       O  0.43874459  0.78253786  0.49401884    -0.39790
C1183       C  0.28232339  0.78110819  0.51832056    -0.12070
C1184       C  0.26635247  0.74555443  0.54882611     0.04940
C1185       C  0.23328425  0.71413927  0.54059646    -0.07350
C1186       C  0.21769606  0.71972556  0.50220716    -0.08100
C1187       C  0.23446941  0.75458762  0.47050602    -0.02650
C1188       C  0.26674106  0.78664648  0.48014088     0.04170
N1189       N  0.28297160  0.82610796  0.45426582     0.66670
H1190       H  0.30712637  0.80561449  0.52521662     0.15570
H1191       H  0.19259690  0.69564739  0.49595524     0.15280
N1192       N  0.21606244  0.67548676  0.56823657     0.74380
O1193       O  0.26456942  0.84184224  0.44061247    -0.39070
O1194       O  0.31521905  0.84892710  0.45386779    -0.39020
O1195       O  0.23347017  0.65950560  0.58450238    -0.39720
O1196       O  0.18356667  0.65385831  0.56966658    -0.39790
C1197       C  0.37057797  0.65042609  0.93910911    -0.12070
C1198       C  0.37922148  0.68834078  0.95758399     0.04940
C1199       C  0.37675016  0.71984581  0.93198383    -0.07350
C1200       C  0.36121275  0.71035442  0.89112107    -0.08100
C1201       C  0.34638061  0.66971002  0.87716914    -0.02650
C1202       C  0.35242942  0.63990750  0.90095585     0.04170
N1203       N  0.34140180  0.59916951  0.88662516     0.66670
H1204       H  0.37481071  0.62700054  0.95667061     0.15570
H1205       H  0.35920288  0.73469128  0.87203926     0.15280
N1206       N  0.38751987  0.76037598  0.94845225     0.74380
O1207       O  0.35487606  0.59559829  0.84804445    -0.39070
O1208       O  0.32961312  0.56908123  0.91657594    -0.39020
O1209       O  0.41438511  0.77703434  0.96909475    -0.39720
O1210       O  0.37104078  0.78040552  0.94069661    -0.39790
C1211       C  0.34326338  0.66877411  0.37910946    -0.12070
C1212       C  0.30864595  0.66197324  0.38679512     0.04940
C1213       C  0.29370309  0.66420629  0.43101835    -0.07350
C1214       C  0.31401465  0.67243699  0.46740264    -0.08100
C1215       C  0.34857528  0.67895734  0.45987373    -0.02650
C1216       C  0.36392422  0.67747515  0.41531817     0.04170
N1217       N  0.39977190  0.68507609  0.40583077     0.66670
H1218       H  0.35406057  0.66714876  0.34438794     0.15570
H1219       H  0.30282307  0.67369689  0.50203946     0.15280
N1220       N  0.25816331  0.65712787  0.43979905     0.74380
O1221       O  0.41899236  0.69151644  0.43780020    -0.39070
O1222       O  0.41278399  0.68621025  0.36468302    -0.39020
O1223       O  0.24093752  0.64161181  0.47879767    -0.39720
O1224       O  0.24452258  0.66877712  0.41001280    -0.39790
C1225       C  0.44794342  0.59382532  0.33562457    -0.12070
C1226       C  0.43307722  0.58634617  0.38229025     0.04940
C1227       C  0.39953188  0.58360314  0.39216916    -0.07350
C1228       C  0.38094968  0.58488784  0.35541350    -0.08100
C1229       C  0.39533808  0.59099993  0.30859889    -0.02650
C1230       C  0.42986655  0.59645467  0.29891592     0.04170
N1231       N  0.44712904  0.60406794  0.25239002     0.66670
H1232       H  0.47364874  0.59638882  0.32697029     0.15570
H1233       H  0.35541817  0.58287060  0.36394589     0.15280
N1234       N  0.38466561  0.58193062  0.43903749     0.74380
O1235       O  0.47888897  0.62971221  0.24429725    -0.39070
O1236       O  0.43274859  0.58053831  0.22126724    -0.39020
O1237       O  0.40335458  0.60459705  0.46794839    -0.39720
O1238       O  0.35209855  0.56386051  0.44927606    -0.39790
C1239       C  0.15047559  0.54182478  0.36223713    -0.12070
C1240       C  0.14786072  0.57287577  0.38819975     0.04940
C1241       C  0.15878816  0.61197101  0.36476984    -0.07350
C1242       C  0.17119398  0.61867075  0.31724442    -0.08100
C1243       C  0.17362859  0.58758736  0.29131374    -0.02650
C1244       C  0.16216243  0.54823797  0.31440038     0.04170
N1245       N  0.16156823  0.51405389  0.28981609     0.66670
H1246       H  0.14210421  0.51144788  0.37837885     0.15570
H1247       H  0.17998536  0.64922552  0.30124953     0.15280
N1248       N  0.15795448  0.64567272  0.38860945     0.74380
O1249       O  0.16825118  0.48775776  0.30947391    -0.39070
O1250       O  0.15049559  0.50741746  0.25060505    -0.39020
O1251       O  0.17053629  0.65462654  0.42663378    -0.39720
O1252       O  0.14816064  0.66924375  0.36933097    -0.39790
C1253       C  0.39384993  0.84928752  0.37071809    -0.12070
C1254       C  0.42611706  0.85092140  0.37677871     0.04940
C1255       C  0.44142932  0.83438917  0.34322444    -0.07350
C1256       C  0.42471196  0.81874363  0.30363368    -0.08100
C1257       C  0.39245883  0.81710912  0.29745577    -0.02650
C1258       C  0.37651675  0.83253668  0.33171940     0.04170
N1259       N  0.34357055  0.83261683  0.32762183     0.66670
H1260       H  0.38249164  0.86235639  0.39621398     0.15570
H1261       H  0.43614761  0.80556714  0.27838310     0.15280
N1262       N  0.47255280  0.83085778  0.34977197     0.74380
O1263       O  0.32802097  0.84079927  0.36172492    -0.39070
O1264       O  0.33144619  0.82896255  0.28926376    -0.39020
O1265       O  0.48037471  0.82827514  0.38999773    -0.39720
O1266       O  0.48944852  0.82402900  0.31603647    -0.39790
C1267       C  0.26833621  0.54666644  0.00537520    -0.12070
C1268       C  0.25725507  0.52482085  0.04931750     0.04940
C1269       C  0.22770288  0.98547035  0.05334454    -0.07350
C1270       C  0.21223936  0.96856306  0.01318268    -0.08100
C1271       C  0.22448576  0.98910192  0.96877603    -0.02650
C1272       C  0.25151789  0.53023108  0.96555040     0.04170
N1273       N  0.25960458  0.55743866  0.92466913     0.66670
H1274       H  0.28955335  0.57772831  0.00237814     0.15570
H1275       H  0.19014564  0.93828264  0.01678167     0.15280
N1276       N  0.21268313  0.96166919  0.09711242     0.74380
O1277       O  0.26947067  0.59547386  0.92863051    -0.39070
O1278       O  0.25690437  0.54416985  0.88466205    -0.39020
O1279       O  0.18155752  0.93399146  0.10184552    -0.39720
O1280       O  0.23083005  0.96489372  0.12958082    -0.39790
C1281       C  0.48584636  0.71271635  0.04001956    -0.12070
C1282       C  0.48170855  0.74419379  0.06285418     0.04940
C1283       C  0.49399705  0.78274237  0.03747378    -0.07350
C1284       C  0.50813505  0.78793169  0.99047292    -0.08100
C1285       C  0.01109315  0.75586175  0.96702245    -0.02650
C1286       C  0.99995470  0.71791394  0.99328732     0.04170
N1287       N  0.00099397  0.68308181  0.97314793     0.66670
H1288       H  0.97702807  0.68278659  0.05768954     0.15570
H1289       H  0.51786934  0.81804952  0.97262071     0.15280
N1290       N  0.49280407  0.81729388  0.05887211     0.74380
O1291       O  0.02164627  0.67043514  0.98617500    -0.39070
O1292       O  0.97522960  0.65885594  0.95392307    -0.39020
O1293       O  0.50270655  0.82611420  0.09848765    -0.39720
O1294       O  0.48534521  0.84150383  0.03630903    -0.39790
C1295       C  0.24705311  0.73214260  0.95904295    -0.12070
C1296       C  0.22049859  0.74339299  0.96986056     0.04940
C1297       C  0.21012755  0.74517260  0.01726733    -0.07350
C1298       C  0.22813998  0.73913457  0.05185817    -0.08100
C1299       C  0.25614639  0.73059840  0.04076024    -0.02650
C1300       C  0.26403854  0.72398058  0.99397086     0.04170
N1301       N  0.28712482  0.70637801  0.98153192     0.66670
H1302       H  0.25371591  0.72828880  0.92313779     0.15570
H1303       H  0.22150847  0.74367655  0.08754699     0.15280
N1304       N  0.18423428  0.75799418  0.03057289     0.74380
O1305       O  0.28819150  0.67968773  0.00875233    -0.39070
O1306       O  0.30045410  0.71053299  0.94004008    -0.39020
O1307       O  0.16410840  0.74325268  0.06780865    -0.39720
O1308       O  0.18663121  0.79010660  0.01046379    -0.39790
C1309       C  0.88102105  0.18964218  0.00715804     0.42660
N1310       N  0.86630761  0.20036962  0.07553876     0.01550
C1311       C  0.83754213  0.08448537  0.27733232    -0.06330
H1312       H  0.73371523  0.03643564  0.14981277     0.07040
C1313       C  0.71415670  0.14099805  0.22331941    -0.06680
Co1314     Co  0.86309104  0.13685671  0.14255460     0.74180
N1315       N  0.78783028  0.07377966  0.15787461    -0.25860
Co1316     Co  0.78774104  0.10176261  0.21996465     0.74070
C1317       C  0.69387691  0.09848779  0.24379032     0.42760
N1318       N  0.79217348  0.22079443  0.14396239     0.01160
N1319       N  0.74341154  0.10707084  0.20832126     0.01270
N1320       N  0.88681944  0.11051173  0.22782217    -0.46710
H1321       H  0.88027881  0.12870970  0.03224986     0.07030
N1322       N  0.81660048  0.08594458  0.12911180     0.01550
N1323       N  0.78828412  0.13370577  0.27806911     0.01290
C1324       C  0.78919451  0.15211102  0.34738154     0.42900
N1325       N  0.82115893  0.23471913  0.11531770    -0.25310
C1326       C  0.93947668  0.19239415  0.13158480    -0.06230
N1327       N  0.87446469  0.21628335  0.03259413    -0.46420
N1328       N  0.78842610  0.12175641  0.32103086    -0.46640
C1329       C  0.95998197  0.23435922  0.10958992     0.42670
N1330       N  0.86072749  0.11127270  0.20817727     0.01540
N1331       N  0.86508204  0.26178699  0.19270415    -0.25340
N1332       N  0.86638837  0.16443848  0.07962140    -0.25830
N1333       N  0.83625648  0.24881134  0.22140142     0.01180
H1334       H  0.91816968  0.30652353  0.19786092     0.07070
H1335       H  0.79140323  0.21402478  0.32476368     0.07110
N1336       N  0.83174748  0.09691754  0.23665143    -0.25880
N1337       N  0.74477274  0.14395956  0.20472639    -0.25490
N1338       N  0.91056647  0.22709900  0.14475500     0.01550
C1339       C  0.77584071  0.04494246  0.09002842     0.42940
C1340       C  0.81476806  0.24334319  0.07323830    -0.06740
N1341       N  0.78948728  0.17045485  0.27447923    -0.25490
H1342       H  0.71084603  0.16764804  0.23273073     0.07090
N1343       N  0.81044243  0.06999363  0.08808604    -0.46710
H1344       H  0.83314663  0.25335022  0.04222126     0.07080
C1345       C  0.87503755  0.29570885  0.25727364     0.42780
C1346       C  0.87556071  0.15499977  0.03837787    -0.06240
Co1347     Co  0.86577733  0.23203983  0.13255455     0.73820
N1348       N  0.76545763  0.21832995  0.12308154    -0.46430
C1349       C  0.87426199  0.09359162  0.27168542     0.43040
N1350       N  0.94040016  0.25370994  0.12112299    -0.46420
Co1351     Co  0.79055354  0.19698560  0.21058367     0.73890
C1352       C  0.78974395  0.18437322  0.31666754    -0.06750
C1353       C  0.76079950  0.04826796  0.13628678    -0.06310
N1354       N  0.90896627  0.19003651  0.14983947    -0.25840
N1355       N  0.71353389  0.07963637  0.23076962    -0.46600
H1356       H  0.81875830  0.07257816  0.30786553     0.07050
C1357       C  0.89110653  0.29154362  0.21219880    -0.06720
Cl1358     Cl  0.82697201  0.16706230  0.17669352    -0.49720
C1359       C  0.77770454  0.23155987  0.07807397     0.42810
H1360       H  0.94235890  0.16532685  0.12296690     0.07020
N1361       N  0.84133207  0.26755014  0.26059608    -0.46430
C1362       C  0.77874994  0.04514249  0.58421108     0.42660
N1363       N  0.82027761  0.08610232  0.62192497     0.01550
C1364       C  0.81803499  0.18950030  0.81282456    -0.06330
H1365       H  0.72645723  0.17594869  0.74373744     0.07040
C1366       C  0.82337719  0.25211008  0.57836670    -0.06680
Co1367     Co  0.79740690  0.10146480  0.71604202     0.74180
N1368       N  0.75677619  0.14878417  0.71149141    -0.25860
Co1369     Co  0.80410176  0.20033112  0.71305833     0.74070
C1370       C  0.78685788  0.24244081  0.58599088     0.42760
N1371       N  0.87039427  0.20198031  0.57013456     0.01160
N1372       N  0.80219837  0.22563243  0.64835551     0.01270
N1373       N  0.81637229  0.12669192  0.81354389    -0.46710
H1374       H  0.73783689  0.03372867  0.64726164     0.07030
N1375       N  0.75362866  0.11095465  0.71422023     0.01550
N1376       N  0.85130368  0.25222418  0.72078840     0.01290
C1377       C  0.89227188  0.30045364  0.75312550     0.42900
N1378       N  0.86807200  0.16468684  0.57136795    -0.25310
C1379       C  0.84377164  0.06990620  0.75980486    -0.06230
N1380       N  0.81325538  0.06979890  0.58143297    -0.46420
N1381       N  0.85824835  0.27314099  0.75859275    -0.46640
C1382       C  0.88024245  0.07835470  0.75361778     0.42670
N1383       N  0.80637449  0.13517006  0.77491462     0.01540
N1384       N  0.91547616  0.18681485  0.63797607    -0.25340
N1385       N  0.79220127  0.07394726  0.65217642    -0.25830
N1386       N  0.91845285  0.22467176  0.63562669     0.01180
H1387       H  0.94554128  0.16057279  0.60386616     0.07070
H1388       H  0.93262896  0.30859994  0.69092836     0.07110
N1389       N  0.80818518  0.17240085  0.77329377    -0.25880
N1390       N  0.83036329  0.23980671  0.61805050    -0.25490
N1391       N  0.86874338  0.10679212  0.69579121     0.01550
C1392       C  0.70783082  0.10693397  0.75603521     0.42940
C1393       C  0.86566818  0.15170875  0.52862573    -0.06740
N1394       N  0.87898912  0.26357515  0.69037718    -0.25490
H1395       H  0.84085288  0.26325617  0.54655591     0.07090
N1396       N  0.72475575  0.08546150  0.74062030    -0.46710
H1397       H  0.86218547  0.12175758  0.51898168     0.07080
C1398       C  0.96527962  0.22988551  0.59562142     0.42780
C1399       C  0.76455858  0.04755362  0.63175699    -0.06240
Co1400     Co  0.86841475  0.13542858  0.63251026     0.73820
N1401       N  0.86911697  0.21534213  0.52831719    -0.46430
C1402       C  0.82463191  0.15990246  0.83883101     0.43040
N1403       N  0.89414877  0.10166507  0.71272433    -0.46420
Co1404     Co  0.87477222  0.23335063  0.62912046     0.73890
C1405       C  0.90629270  0.29370545  0.70773406    -0.06750
C1406       C  0.72823627  0.14845114  0.73419342    -0.06310
N1407       N  0.83971460  0.09028360  0.72408210    -0.25840
N1408       N  0.77522039  0.22611476  0.63043300    -0.46600
H1409       H  0.82204266  0.21996328  0.82092828     0.07050
C1410       C  0.94454770  0.18784979  0.61637207    -0.06720
Cl1411     Cl  0.83617576  0.16762681  0.67280614    -0.49720
C1412       C  0.86671164  0.18547578  0.50027079     0.42810
H1413       H  0.82401062  0.05373958  0.78855210     0.07020
N1414       N  0.94776451  0.25068944  0.61069414    -0.46430
C1415       C  0.71704391  0.25629267  0.42881362     0.42660
N1416       N  0.67673909  0.25598163  0.39017745     0.01550
C1417       C  0.69575905  0.38031925  0.19963568    -0.06330
H1418       H  0.77938250  0.45126160  0.27244944     0.07040
C1419       C  0.67511012  0.42248081  0.43506794    -0.06680
Co1420     Co  0.70354960  0.30217354  0.29764314     0.74180
N1421       N  0.74641677  0.39201927  0.30711263    -0.25860
Co1422     Co  0.69994449  0.39509169  0.30232911     0.74070
C1423       C  0.71147665  0.45347667  0.42885016     0.42760
N1424       N  0.62750057  0.31908228  0.44078314     0.01160
N1425       N  0.69911126  0.41926603  0.36745196     0.01270
N1426       N  0.69654322  0.31868053  0.19667172    -0.46710
H1427       H  0.75906697  0.29080460  0.36708704     0.07030
N1428       N  0.74807781  0.35662214  0.30588847     0.01550
N1429       N  0.65345807  0.39705242  0.29105892     0.01290
C1430       C  0.61361552  0.40234222  0.25655962     0.42900
N1431       N  0.63019234  0.28454687  0.43950295    -0.25310
C1432       C  0.65310285  0.22883837  0.24481135    -0.06230
N1433       N  0.68272346  0.24483264  0.43079258    -0.46420
N1434       N  0.64764328  0.41155455  0.25234949    -0.46640
C1435       C  0.61656335  0.19837468  0.25192642     0.42670
N1436       N  0.70050749  0.33244049  0.23852150     0.01540
N1437       N  0.58404520  0.25975687  0.37033438    -0.25340
N1438       N  0.70525591  0.27442243  0.36074260    -0.25830
N1439       N  0.58210459  0.29491472  0.37172924     0.01180
H1440       H  0.54938166  0.19833780  0.39715249     0.07070
H1441       H  0.57161830  0.36500625  0.31719567     0.07110
N1442       N  0.69936861  0.36796643  0.24107551    -0.25880
N1443       N  0.66998923  0.40243458  0.39597675    -0.25490
N1444       N  0.63061287  0.23194627  0.31345831     0.01550
C1445       C  0.79702054  0.40131433  0.26784455     0.42940
C1446       C  0.63292396  0.27335081  0.48222387    -0.06740
N1447       N  0.62499753  0.37807594  0.32035313    -0.25490
H1448       H  0.65618698  0.41483985  0.46527083     0.07090
N1449       N  0.77779703  0.36140507  0.28326832    -0.46710
H1450       H  0.63627735  0.24671166  0.49153409     0.07080
C1451       C  0.53246350  0.24910551  0.40665958     0.42780
C1452       C  0.73211065  0.27563854  0.38171049    -0.06240
Co1453     Co  0.63019684  0.25698960  0.37788635     0.73820
N1454       N  0.62811127  0.33245687  0.48258609    -0.46430
C1455       C  0.69361409  0.34769989  0.17083558     0.43040
N1456       N  0.60409650  0.20256665  0.29514304    -0.46420
Co1457     Co  0.62596677  0.34920271  0.38173907     0.73890
C1458       C  0.59841515  0.37956859  0.30174749    -0.06750
C1459       C  0.77648524  0.42179636  0.28563048    -0.06310
N1460       N  0.65932312  0.24852160  0.28423733    -0.25840
N1461       N  0.72476848  0.44966938  0.38591307    -0.46600
H1462       H  0.69253231  0.40725762  0.19156330     0.07050
C1463       C  0.55324118  0.22908998  0.38813018    -0.06720
Cl1464     Cl  0.66499108  0.32589535  0.33989400    -0.49720
C1465       C  0.63145920  0.30520031  0.51075178     0.42810
H1466       H  0.67116200  0.23687889  0.21359877     0.07020
N1467       N  0.55165523  0.28934601  0.39232593    -0.46430
C1468       C  0.70408931  0.25281451  0.93128690     0.42660
N1469       N  0.66746615  0.26378203  0.89533954     0.01550
C1470       C  0.69885833  0.38874956  0.69915556    -0.06330
H1471       H  0.77682285  0.45698187  0.77346478     0.07040
C1472       C  0.66952752  0.43629881  0.93280124    -0.06680
Co1473     Co  0.69819037  0.31053934  0.80400730     0.74180
N1474       N  0.74315527  0.39981874  0.81153927    -0.25860
Co1475     Co  0.69763787  0.40499801  0.80366338     0.74070
C1476       C  0.70596265  0.46697022  0.92873475     0.42760
N1477       N  0.62174179  0.33308547  0.94132552     0.01160
N1478       N  0.69574641  0.43101602  0.86792865     0.01270
N1479       N  0.70066742  0.32781315  0.70179806    -0.46710
H1480       H  0.74792948  0.28636147  0.87136577     0.07030
N1481       N  0.74336519  0.36351030  0.81249376     0.01550
N1482       N  0.65247345  0.40843844  0.78886266     0.01290
C1483       C  0.61476048  0.41283668  0.74856176     0.42900
N1484       N  0.62177015  0.29684936  0.94167720    -0.25310
C1485       C  0.64967107  0.23855178  0.75070773    -0.06230
N1486       N  0.67086370  0.24681127  0.93409318    -0.46420
N1487       N  0.64846030  0.42150524  0.74803008    -0.46640
C1488       C  0.61352517  0.20718718  0.75605509     0.42670
N1489       N  0.69912518  0.34091093  0.74340395     0.01540
N1490       N  0.57738907  0.27273840  0.87253537    -0.25340
N1491       N  0.69661925  0.28090804  0.86692176    -0.25830
N1492       N  0.57616748  0.30840188  0.87352907     0.01180
H1493       H  0.54689394  0.21491691  0.90904571     0.07070
H1494       H  0.57045245  0.37811883  0.80776954     0.07110
N1495       N  0.69815195  0.37651633  0.74292904    -0.25880
N1496       N  0.66574482  0.41540027  0.89450688    -0.25490
N1497       N  0.62422483  0.24240846  0.81689967     0.01550
C1498       C  0.79171658  0.40433264  0.76967748     0.42940
C1499       C  0.62152446  0.28475756  0.98524103    -0.06740
N1500       N  0.62300440  0.39051003  0.81659900    -0.25490
H1501       H  0.64946447  0.42941175  0.96144042     0.07090
N1502       N  0.77174164  0.36562034  0.78852234    -0.46710
H1503       H  0.62181657  0.25651584  0.99650636     0.07080
C1504       C  0.52933846  0.26494351  0.91777796     0.42780
C1505       C  0.72122059  0.27524859  0.88631849    -0.06240
Co1506     Co  0.62256045  0.26815118  0.88096540     0.73820
N1507       N  0.62313286  0.34773113  0.98262849    -0.46430
C1508       C  0.70042364  0.35615018  0.67183430     0.43040
N1509       N  0.59903172  0.21177376  0.79789369    -0.46420
Co1510     Co  0.62160754  0.36250520  0.88061901     0.73890
C1511       C  0.59769616  0.39189832  0.79440990    -0.06750
C1512       C  0.77322039  0.42747416  0.78750315    -0.06310
N1513       N  0.65386064  0.25867581  0.78950072    -0.25840
N1514       N  0.72079706  0.46136033  0.88757083    -0.46600
H1515       H  0.69792051  0.41668169  0.68845558     0.07050
C1516       C  0.54826369  0.24364740  0.89660692    -0.06720
Cl1517     Cl  0.66007295  0.33659944  0.84245211    -0.49720
C1518       C  0.62344102  0.31902167  0.01180602     0.42810
H1519       H  0.66935961  0.24624647  0.72145195     0.07020
N1520       N  0.54777075  0.30433307  0.89952398    -0.46430
C1521       C  0.94912492  0.36528037  0.92447752     0.42660
N1522       N  0.98584978  0.41090390  0.96433879     0.01550
C1523       C  0.45924866  0.01300943  0.14886216    -0.06330
H1524       H  0.87936047  0.49479871  0.07066429     0.07040
C1525       C  0.98543883  0.08389991  0.91166447    -0.06680
Co1526     Co  0.95585374  0.42923240  0.05219869     0.74180
N1527       N  0.91301937  0.47213195  0.03822592    -0.25860
Co1528     Co  0.95903570  0.02576569  0.04404936     0.74070
C1529       C  0.94923929  0.07678065  0.91699542     0.42760
N1530       N  0.52979723  0.02614891  0.90847957     0.01160
N1531       N  0.96032891  0.05210042  0.97839332     0.01270
N1532       N  0.45863263  0.45080418  0.15348832    -0.46710
H1533       H  0.90328326  0.35697070  0.97876231     0.07030
N1534       N  0.91167946  0.43503807  0.04072816     0.01550
N1535       N  0.50578973  0.07771827  0.05552994     0.01290
C1536       C  0.54592306  0.12194356  0.09268124     0.42900
N1537       N  0.52922395  0.48964152  0.91236296    -0.25310
C1538       C  0.50495430  0.41223008  0.11014534    -0.06230
N1539       N  0.98277517  0.39168298  0.92550925    -0.46420
N1540       N  0.51153109  0.09623950  0.09509369    -0.46640
C1541       C  0.54135276  0.42075573  0.10534318     0.42670
N1542       N  0.95708149  0.46180071  0.11058326     0.01540
N1543       N  0.57608325  0.01657449  0.98056543    -0.25340
N1544       N  0.95599113  0.39930357  0.99028122    -0.25830
N1545       N  0.57802381  0.05358397  0.97387268     0.01180
H1546       H  0.60977613  0.99067382  0.95764193     0.07070
H1547       H  0.58861847  0.13028497  0.03378658     0.07110
N1548       N  0.95818832  0.99849845  0.10698721    -0.25880
N1549       N  0.98969791  0.06716504  0.95057472    -0.25490
N1550       N  0.52917910  0.43890389  0.04123070     0.01550
C1551       C  0.86261250  0.42608147  0.07760558     0.42940
C1552       C  0.02442224  0.47307965  0.87155373    -0.06740
N1553       N  0.53469116  0.08930594  0.02704991    -0.25490
H1554       H  0.00483308  0.09695072  0.88191678     0.07090
N1555       N  0.88205384  0.40729350  0.06358728    -0.46710
H1556       H  0.02201681  0.44313933  0.86358480     0.07080
C1557       C  0.62640719  0.05844752  0.93856768     0.42780
C1558       C  0.93088012  0.37092497  0.96751675    -0.06240
Co1559     Co  0.53047460  0.46356835  0.97540488     0.73820
N1560       N  0.02473650  0.03531721  0.86676074    -0.46430
C1561       C  0.45956242  0.98146382  0.17958272     0.43040
N1562       N  0.55478715  0.43727793  0.06141564    -0.46420
Co1563     Co  0.53333658  0.06002922  0.96533366     0.73890
C1564       C  0.56148943  0.11696772  0.04759689    -0.06750
C1565       C  0.88259725  0.46875438  0.05839261    -0.06310
N1566       N  0.49991048  0.42477508  0.06919878    -0.25840
N1567       N  0.93516927  0.05614881  0.95931092    -0.46600
H1568       H  0.46122831  0.04284527  0.15660044     0.07050
C1569       C  0.60623557  0.01779739  0.96276991    -0.06720
Cl1570     Cl  0.49458637  0.99463646  0.00924407    -0.49720
C1571       C  0.02141343  0.50318096  0.84208592     0.42810
H1572       H  0.48572292  0.40000707  0.14019637     0.07020
N1573       N  0.60760595  0.07897492  0.94870426    -0.46430
C1574       C  0.94407892  0.37243777  0.41665430     0.42660
N1575       N  0.98383301  0.41695751  0.45352998     0.01550
C1576       C  0.46144218  0.00797554  0.64864009    -0.06330
H1577       H  0.88503726  0.50198521  0.57236279     0.07040
C1578       C  0.98884251  0.08745671  0.41329438    -0.06680
Co1579     Co  0.95634616  0.42978883  0.54621875     0.74180
N1580       N  0.91488355  0.47568028  0.53769977    -0.25860
Co1581     Co  0.96172855  0.02715420  0.54477763     0.74070
C1582       C  0.95268099  0.08006418  0.41906501     0.42760
N1583       N  0.53526825  0.03562771  0.40579947     0.01160
N1584       N  0.96405589  0.05619751  0.48053294     0.01270
N1585       N  0.45934840  0.44461676  0.64711068    -0.46710
H1586       H  0.90168505  0.36029994  0.47760707     0.07030
N1587       N  0.91189981  0.43782298  0.53998618     0.01550
N1588       N  0.50799081  0.07723214  0.55863439     0.01290
C1589       C  0.54642284  0.12133019  0.59796832     0.42900
N1590       N  0.53269303  0.49817534  0.40592889    -0.24950
C1591       C  0.50552677  0.40599808  0.59757876    -0.06230
N1592       N  0.97817766  0.39946741  0.41349059    -0.46420
N1593       N  0.51248564  0.09448316  0.59889295    -0.46640
C1594       C  0.54174886  0.41335718  0.59023439     0.42670
N1595       N  0.95883172  0.45921739  0.60570860     0.01540
N1596       N  0.57728381  0.01771127  0.47592410    -0.25340
N1597       N  0.95518783  0.40369049  0.48280800    -0.25830
N1598       N  0.58023148  0.05549940  0.47501381     0.01180
H1599       H  0.60861998  0.99225041  0.44415752     0.07070
H1600       H  0.59028839  0.13393081  0.53864183     0.07110
N1601       N  0.96054221  0.99632774  0.60547543    -0.25880
N1602       N  0.99336006  0.07143336  0.45249611    -0.25490
N1603       N  0.52894754  0.43711282  0.53010463     0.01550
C1604       C  0.86450054  0.43242470  0.57999783     0.42940
C1605       C  0.03269638  0.48722643  0.36240828    -0.06740
N1606       N  0.53719871  0.09045785  0.53061831    -0.25490
H1607       H  0.00829742  0.10119321  0.38366984     0.07090
N1608       N  0.88240796  0.41174916  0.56514663    -0.46710
H1609       H  0.03006380  0.45785212  0.35178595     0.07080
C1610       C  0.62831645  0.06203606  0.43636684     0.42780
C1611       C  0.92859356  0.37553520  0.46262538    -0.06240
Co1612     Co  0.53072195  0.46667116  0.46687973     0.73820
N1613       N  0.03632584  0.05098082  0.36393158    -0.46430
C1614       C  0.46108898  0.97390102  0.67540988     0.43040
N1615       N  0.55472405  0.43347952  0.54769987    -0.46420
Co1616     Co  0.53672357  0.06420578  0.46664175     0.73890
C1617       C  0.56309687  0.11850143  0.55235017    -0.06750
C1618       C  0.88582154  0.47465013  0.55971747    -0.06310
N1619       N  0.50007253  0.42199463  0.55898513    -0.25840
N1620       N  0.93887329  0.06007631  0.46165489    -0.46600
H1621       H  0.46352550  0.03715477  0.65956559     0.07050
C1622       C  0.60701735  0.01939764  0.45569605    -0.06720
Cl1623     Cl  0.99633295  0.99693008  0.50608164    -0.49720
C1624       C  0.03524878  0.52230138  0.33469692     0.42810
H1625       H  0.48709295  0.39319655  0.62838063     0.07020
N1626       N  0.61023143  0.08221295  0.45199524    -0.46430
C1627       C  0.96041148  0.99002443  0.75473750    -0.12070
C1628       C  0.47619309  0.97888461  0.71779022     0.04940
C1629       C  0.50749242  0.47650161  0.72103490    -0.07350
C1630       C  0.01993847  0.48079143  0.76399979    -0.08100
C1631       C  0.00478102  0.49343177  0.80042199    -0.02650
C1632       C  0.97504305  0.99826525  0.79571765     0.04170
N1633       N  0.96258304  0.01754807  0.82909826     0.66670
H1634       H  0.93751382  0.99418224  0.75109476     0.15570
H1635       H  0.04351145  0.47843623  0.76783605     0.15280
N1636       N  0.52911504  0.47512534  0.68107406     0.74380
O1637       O  0.96623128  0.05296660  0.81820262    -0.39070
O1638       O  0.94718259  0.99926514  0.86800612    -0.39020
O1639       O  0.53095821  0.49373285  0.64304498    -0.39720
O1640       O  0.05294374  0.46549545  0.68700318    -0.39790
C1641       C  0.51189786  0.99584640  0.21492554    -0.12070
C1642       C  0.47812072  0.99214433  0.22003802     0.04940
C1643       C  0.96475300  0.00258085  0.26122037    -0.07350
C1644       C  0.98559374  0.51476115  0.29721865    -0.08100
C1645       C  0.01884701  0.51709488  0.29264024    -0.02650
C1646       C  0.53297150  0.50878241  0.25073488     0.04170
N1647       N  0.56826174  0.51414884  0.24341276     0.66670
H1648       H  0.52204218  0.98933351  0.18219398     0.15570
H1649       H  0.97542517  0.52126261  0.32994428     0.15280
N1650       N  0.93025244  0.99966628  0.26817082     0.74380
O1651       O  0.58023938  0.50812603  0.20448641    -0.39070
O1652       O  0.58866032  0.02814321  0.27402204    -0.39020
O1653       O  0.91306085  0.49690502  0.23463496    -0.39720
O1654       O  0.91685984  0.00064238  0.30843397    -0.39790
C1655       C  0.56476405  0.38048647  0.70233835    -0.12070
C1656       C  0.59792323  0.41264512  0.70586350     0.04940
C1657       C  0.61408524  0.44315228  0.66846759    -0.07350
C1658       C  0.59648746  0.44090149  0.62923887    -0.08100
C1659       C  0.56255081  0.40946962  0.62675176    -0.02650
C1660       C  0.54711794  0.37821441  0.66346996     0.04170
N1661       N  0.51400906  0.34319047  0.66137628     0.66670
H1662       H  0.55259660  0.35621070  0.72985954     0.15570
H1663       H  0.60844824  0.46554201  0.60208574     0.15280
N1664       N  0.64653743  0.47880717  0.67167717     0.74380
O1665       O  0.99489922  0.32443056  0.69826978    -0.39070
O1666       O  0.50659693  0.32679181  0.62346458    -0.39020
O1667       O  0.67399202  0.47519412  0.67270486    -0.39720
O1668       O  0.64864148  0.51437751  0.66665669    -0.39790
C1669       C  0.56041824  0.17127682  0.71496622    -0.12070
C1670       C  0.59509999  0.18069112  0.71881843     0.04940
C1671       C  0.61303611  0.16848498  0.68386838    -0.07350
C1672       C  0.59692049  0.15021831  0.64465166    -0.08100
C1673       C  0.56272359  0.14245588  0.63956789    -0.02650
C1674       C  0.54404624  0.15245745  0.67600775     0.04170
N1675       N  0.50898106  0.14542447  0.67345933     0.66670
H1676       H  0.54640904  0.18049879  0.74134740     0.15570
H1677       H  0.61102518  0.14093086  0.61850184     0.15280
N1678       N  0.64713607  0.17289516  0.68850750     0.74380
O1679       O  0.98737548  0.13364873  0.70954776    -0.39070
O1680       O  0.50104784  0.15700862  0.63723115    -0.39020
O1681       O  0.65351954  0.16136860  0.72612814    -0.39720
O1682       O  0.67027077  0.18559104  0.65411029    -0.39790
C1683       C  0.81134637  0.44067050  0.68958978    -0.12070
C1684       C  0.81194435  0.41176923  0.72191778     0.04940
C1685       C  0.82763953  0.38680584  0.70545318    -0.07350
C1686       C  0.84325439  0.39298037  0.65883730    -0.08100
C1687       C  0.84301003  0.42243900  0.62700355    -0.02650
C1688       C  0.82551199  0.44530424  0.64275018     0.04170
N1689       N  0.82066738  0.47246336  0.61133229     0.66670
H1690       H  0.79803454  0.45861626  0.69981151     0.15570
H1691       H  0.85643916  0.37501325  0.64769432     0.15280
N1692       N  0.82772056  0.35460582  0.73478959     0.74380
O1693       O  0.81231587  0.46169166  0.57144911    -0.39070
O1694       O  0.82084642  0.50513446  0.62522442    -0.39020
O1695       O  0.82769321  0.32312517  0.71726088    -0.39720
O1696       O  0.83045280  0.35860822  0.77750096    -0.39790
C1697       C  0.66482002  0.35947763  0.56034536    -0.12070
C1698       C  0.64727200  0.31720957  0.55352856     0.04940
C1699       C  0.64965242  0.28840778  0.58382742    -0.07350
C1700       C  0.67007454  0.30247181  0.61978955    -0.08100
C1701       C  0.68694086  0.34471872  0.62736764    -0.02650
C1702       C  0.68521718  0.37361604  0.59637828     0.04170
N1703       N  0.70434438  0.41719374  0.60021642     0.66670
H1704       H  0.66413366  0.38205373  0.53631254     0.15570
H1705       H  0.67083241  0.27972477  0.64350734     0.15280
N1706       N  0.63076832  0.24489219  0.57959040     0.74380
O1707       O  0.73594940  0.43311640  0.60693823    -0.39070
O1708       O  0.69055395  0.44027916  0.59262628    -0.39020
O1709       O  0.64620023  0.22274431  0.58004845    -0.39720
O1710       O  0.59853627  0.22835815  0.57644615    -0.39790
C1711       C  0.62220235  0.31355021  0.09473717    -0.12070
C1712       C  0.64194958  0.33016890  0.05198192     0.04940
C1713       C  0.67872600  0.35403706  0.04858198    -0.07350
C1714       C  0.69449726  0.35687929  0.08877464    -0.08100
C1715       C  0.67486487  0.33888509  0.13104453    -0.02650
C1716       C  0.63810953  0.31881912  0.13514702     0.04170
N1717       N  0.61657228  0.30543580  0.17922466     0.66670
H1718       H  0.59412716  0.29633161  0.09652601     0.15570
H1719       H  0.72249858  0.37355100  0.08740739     0.15280
N1720       N  0.70088094  0.37322255  0.00548572     0.74380
O1721       O  0.58660572  0.30336283  0.18321987    -0.39070
O1722       O  0.62635739  0.29395953  0.21375824    -0.39020
O1723       O  0.69066329  0.36233714  0.96649351    -0.39720
O1724       O  0.73243139  0.39867949  0.00638719    -0.39790
C1725       C  0.54717289  0.41566113  0.18977996    -0.12070
C1726       C  0.56100352  0.41753867  0.14344970     0.04940
C1727       C  0.59298250  0.41627957  0.13493348    -0.07350
C1728       C  0.60929294  0.41093274  0.17226699    -0.08100
C1729       C  0.59554868  0.40924554  0.21859623    -0.02650
C1730       C  0.56462500  0.41330469  0.22731089     0.04170
N1731       N  0.55186498  0.41814061  0.27324610     0.66670
H1732       H  0.52345138  0.41843117  0.19701571     0.15570
H1733       H  0.63282162  0.40778581  0.16511479     0.15280
N1734       N  0.60895594  0.41975898  0.08862275     0.74380
O1735       O  0.52005794  0.40843986  0.28308073    -0.39070
O1736       O  0.57297686  0.43940452  0.30068582    -0.39020
O1737       O  0.62646228  0.45483649  0.06745675    -0.39720
O1738       O  0.60822466  0.38826773  0.07039739    -0.39790
C1739       C  0.58272788  0.12559384  0.15521044    -0.12070
C1740       C  0.56380168  0.14214446  0.13341862     0.04940
C1741       C  0.56020265  0.17561131  0.15295295    -0.07350
C1742       C  0.57580147  0.19154563  0.19351826    -0.08100
C1743       C  0.59537522  0.17558387  0.21467709    -0.02650
C1744       C  0.59829862  0.14161847  0.19570141     0.04170
N1745       N  0.61612506  0.12242069  0.21777975     0.66670
H1746       H  0.58458906  0.09920590  0.14119241     0.15570
H1747       H  0.57386741  0.21778534  0.20770409     0.15280
N1748       N  0.54217838  0.19486749  0.13123951     0.74380
O1749       O  0.62940032  0.10314730  0.19440539    -0.39070
O1750       O  0.61537504  0.12075518  0.26136603    -0.39020
O1751       O  0.54124412  0.19508823  0.08791512    -0.39720
O1752       O  0.53026170  0.21550752  0.15455835    -0.39790
C1753       C  0.86180885  0.41297047  0.16270348    -0.12070
C1754       C  0.84452085  0.41709590  0.12583842     0.04940
C1755       C  0.81269520  0.41810732  0.13613831    -0.07350
C1756       C  0.79881241  0.41520073  0.18278184    -0.08100
C1757       C  0.81596907  0.41093045  0.21992215    -0.02650
C1758       C  0.84826460  0.41025694  0.20959117     0.04170
N1759       N  0.86819870  0.40830224  0.24571760     0.66670
H1760       H  0.88680098  0.41335865  0.15476625     0.15570
H1761       H  0.77370716  0.41474601  0.19002905     0.15280
N1762       N  0.79409229  0.42162958  0.09949954     0.74380
O1763       O  0.89303319  0.39953909  0.23660296    -0.39070
O1764       O  0.86305677  0.41847499  0.28600032    -0.39020
O1765       O  0.79259600  0.40240030  0.06332834    -0.39720
O1766       O  0.77977885  0.44491101  0.10266732    -0.39790
C1767       C  0.89991605  0.04421643  0.86834086    -0.12070
C1768       C  0.92958562  0.07955951  0.87806548     0.04940
C1769       C  0.94365055  0.11395885  0.84503464    -0.07350
C1770       C  0.92870585  0.11201971  0.80344025    -0.08100
C1771       C  0.89984356  0.07617917  0.79289318    -0.02650
C1772       C  0.88559859  0.04164420  0.82591498     0.04170
N1773       N  0.85694040  0.00353138  0.81653277     0.66670
H1774       H  0.88936529  0.01723212  0.89242526     0.15570
H1775       H  0.93913103  0.13934521  0.77989243     0.15280
N1776       N  0.97274502  0.15164240  0.85344000     0.74380
O1777       O  0.83597169  0.97939774  0.84943565    -0.39070
O1778       O  0.85460624  0.99187186  0.77576224    -0.39020
O1779       O  0.00305739  0.15732252  0.83930366    -0.39720
O1780       O  0.96789772  0.18239750  0.86313756    -0.39790
C1781       C  0.65782181  0.05806693  0.80988665    -0.12070
C1782       C  0.68742628  0.09611056  0.80303468     0.04940
C1783       C  0.69851534  0.11944232  0.84236988    -0.07350
C1784       C  0.67853669  0.10527813  0.88595652    -0.08100
C1785       C  0.64838334  0.06754207  0.89270654    -0.02650
C1786       C  0.63824644  0.04321071  0.85365073     0.04170
N1787       N  0.60802173  0.00397458  0.85609631     0.66670
H1788       H  0.64995767  0.03918343  0.78057906     0.15570
H1789       H  0.68685438  0.12419072  0.91514393     0.15280
N1790       N  0.73104465  0.15583437  0.84047492     0.74380
O1791       O  0.58986679  0.99576603  0.82275687    -0.39070
O1792       O  0.60711062  0.97417481  0.87987816    -0.39020
O1793       O  0.73355097  0.18938551  0.82381660    -0.39720
O1794       O  0.75174504  0.15724654  0.86886222    -0.39790
C1795       C  0.92205095  0.36926036  0.85387364    -0.12070
C1796       C  0.93551183  0.34828167  0.87999091     0.04940
C1797       C  0.93963502  0.31507328  0.86010604    -0.07350
C1798       C  0.92576351  0.30061849  0.81817963    -0.08100
C1799       C  0.91123899  0.32080839  0.79299678    -0.02650
C1800       C  0.91146117  0.35722522  0.80965907     0.04170
N1801       N  0.90294640  0.38343430  0.78137484     0.66670
H1802       H  0.92151374  0.39658784  0.86716812     0.15570
H1803       H  0.92652805  0.27346714  0.80468424     0.15280
N1804       N  0.95757264  0.29557983  0.88152994     0.74380
O1805       O  0.89692002  0.41119925  0.79931838    -0.39070
O1806       O  0.90625929  0.38299871  0.73771994    -0.39020
O1807       O  0.98210510  0.31588691  0.90496635    -0.39720
O1808       O  0.95168702  0.25930578  0.87275921    -0.39790
C1809       C  0.71286301  0.49555132  0.49641300    -0.12070
C1810       C  0.73067195  0.48040540  0.46540234     0.04940
C1811       C  0.76474778  0.48830720  0.47295984    -0.07350
C1812       C  0.77922923  0.00923184  0.51192591    -0.08100
C1813       C  0.76119014  0.02362941  0.54354235    -0.02650
C1814       C  0.72795559  0.51808199  0.53435420     0.04170
N1815       N  0.70962299  0.53610256  0.56172038     0.66670
H1816       H  0.68705600  0.49053926  0.49037688     0.15570
H1817       H  0.80508776  0.01430866  0.51759014     0.15280
N1818       N  0.78463713  0.47411698  0.44275652     0.74380
O1819       O  0.72571746  0.57263482  0.57335869    -0.39070
O1820       O  0.67680898  0.51871784  0.56682449    -0.39020
O1821       O  0.79319899  0.98773888  0.40081339    -0.39720
O1822       O  0.79967725  0.45536499  0.45981490    -0.39790
C1823       C  0.50157427  0.21455514  0.53548469    -0.12070
C1824       C  0.98382915  0.23754745  0.54756284     0.04940
C1825       C  0.97971533  0.26138207  0.51158141    -0.07350
C1826       C  0.99378613  0.26172958  0.46578613    -0.08100
C1827       C  0.51211716  0.23931370  0.45385803    -0.02650
C1828       C  0.51533718  0.21478402  0.48975476     0.04170
N1829       N  0.53200091  0.18927876  0.48132078     0.66670
H1830       H  0.50454618  0.19551399  0.56189048     0.15570
H1831       H  0.99125563  0.28089466  0.43918704     0.15280
N1832       N  0.96123801  0.28518556  0.52003702     0.74380
O1833       O  0.56433459  0.20429364  0.48252840    -0.39070
O1834       O  0.51381602  0.15072049  0.48673734    -0.39020
O1835       O  0.97333634  0.31572648  0.54455477    -0.39720
O1836       O  0.93874451  0.28253775  0.49401870    -0.39790
C1837       C  0.78232338  0.28110821  0.51832058    -0.12070
C1838       C  0.76635247  0.24555445  0.54882613     0.04940
C1839       C  0.73328425  0.21413929  0.54059648    -0.07350
C1840       C  0.71769606  0.21972556  0.50220718    -0.08100
C1841       C  0.73446940  0.25458763  0.47050604    -0.02650
C1842       C  0.76674105  0.28664649  0.48014090     0.04170
N1843       N  0.78297158  0.32610797  0.45426584     0.66670
H1844       H  0.80712637  0.30561452  0.52521664     0.15570
H1845       H  0.69259690  0.19564739  0.49595526     0.15280
N1846       N  0.71606245  0.17548677  0.56823659     0.74380
O1847       O  0.76456940  0.34184224  0.44061249    -0.39070
O1848       O  0.81521903  0.34892711  0.45386780    -0.39020
O1849       O  0.73347019  0.15950561  0.58450240    -0.39720
O1850       O  0.68356668  0.15385831  0.56966659    -0.39790
C1851       C  0.87057798  0.15042609  0.93910911    -0.12070
C1852       C  0.87922149  0.18834077  0.95758399     0.04940
C1853       C  0.87675017  0.21984580  0.93198383    -0.07350
C1854       C  0.86121276  0.21035442  0.89112107    -0.08100
C1855       C  0.84638062  0.16971002  0.87716914    -0.02650
C1856       C  0.85242942  0.13990750  0.90095585     0.04170
N1857       N  0.84140179  0.09916950  0.88662517     0.66670
H1858       H  0.87481071  0.12700054  0.95667061     0.15570
H1859       H  0.85920289  0.23469128  0.87203926     0.15280
N1860       N  0.88751988  0.26037597  0.94845226     0.74380
O1861       O  0.85487604  0.09559826  0.84804447    -0.39070
O1862       O  0.82961310  0.06908123  0.91657597    -0.39020
O1863       O  0.91438512  0.27703434  0.96909475    -0.39720
O1864       O  0.87104078  0.28040551  0.94069663    -0.39790
C1865       C  0.84326337  0.16877411  0.37910946    -0.12070
C1866       C  0.80864594  0.16197325  0.38679513     0.04940
C1867       C  0.79370308  0.16420631  0.43101835    -0.07350
C1868       C  0.81401464  0.17243702  0.46740264    -0.08100
C1869       C  0.84857527  0.17895736  0.45987374    -0.02650
C1870       C  0.86392421  0.17747516  0.41531818     0.04170
N1871       N  0.89977189  0.18507609  0.40583079     0.66670
H1872       H  0.85406056  0.16714876  0.34438795     0.15570
H1873       H  0.80282306  0.17369693  0.50203945     0.15280
N1874       N  0.75816330  0.15712790  0.43979904     0.74380
O1875       O  0.91899234  0.19151643  0.43780022    -0.39070
O1876       O  0.91278398  0.18621026  0.36468304    -0.39020
O1877       O  0.74093752  0.14161184  0.47879767    -0.39720
O1878       O  0.74452258  0.16877715  0.41001279    -0.39790
C1879       C  0.94794341  0.09382533  0.33562457    -0.12070
C1880       C  0.93307721  0.08634617  0.38229025     0.04940
C1881       C  0.89953188  0.08360315  0.39216916    -0.07350
C1882       C  0.88094968  0.08488785  0.35541350    -0.08100
C1883       C  0.89533807  0.09099993  0.30859889    -0.02650
C1884       C  0.92986654  0.09645467  0.29891592     0.04170
N1885       N  0.94712902  0.10406794  0.25239001     0.66670
H1886       H  0.97364873  0.09638882  0.32697029     0.15570
H1887       H  0.85541816  0.08287061  0.36394589     0.15280
N1888       N  0.88466560  0.08193063  0.43903749     0.74380
O1889       O  0.97888896  0.12971221  0.24429724    -0.39070
O1890       O  0.93274858  0.08053830  0.22126724    -0.39020
O1891       O  0.90335457  0.10459706  0.46794838    -0.39720
O1892       O  0.85209854  0.06386052  0.44927606    -0.39790
C1893       C  0.65047557  0.04182477  0.36223713    -0.12070
C1894       C  0.64786070  0.07287576  0.38819976     0.04940
C1895       C  0.65878815  0.11197101  0.36476986    -0.07350
C1896       C  0.67119398  0.11867076  0.31724444    -0.08100
C1897       C  0.67362858  0.08758737  0.29131375    -0.02650
C1898       C  0.66216241  0.04823797  0.31440038     0.04170
N1899       N  0.66156820  0.01405389  0.28981608     0.66670
H1900       H  0.64210417  0.01144787  0.37837885     0.15570
H1901       H  0.67998537  0.14922553  0.30124956     0.15280
N1902       N  0.65795447  0.14567272  0.38860947     0.74380
O1903       O  0.66825114  0.98775775  0.30947391    -0.39070
O1904       O  0.65049558  0.00741747  0.25060504    -0.39020
O1905       O  0.67053629  0.15462652  0.42663381    -0.39720
O1906       O  0.64816064  0.16924375  0.36933099    -0.39790
C1907       C  0.89384994  0.34928751  0.37071808    -0.12070
C1908       C  0.92611708  0.35092140  0.37677869     0.04940
C1909       C  0.94142934  0.33438918  0.34322441    -0.07350
C1910       C  0.92471198  0.31874364  0.30363365    -0.08100
C1911       C  0.89245884  0.31710912  0.29745576    -0.02650
C1912       C  0.87651676  0.33253667  0.33171939     0.04170
N1913       N  0.84357055  0.33261681  0.32762184     0.66670
H1914       H  0.88249165  0.36235638  0.39621398     0.15570
H1915       H  0.93614763  0.30556715  0.27838306     0.15280
N1916       N  0.97255283  0.33085780  0.34977192     0.74380
O1917       O  0.82802096  0.34079920  0.36172495    -0.39070
O1918       O  0.83144621  0.32896256  0.28926377    -0.39020
O1919       O  0.98037476  0.32827518  0.38999767    -0.39720
O1920       O  0.98944854  0.32402902  0.31603642    -0.39790
C1921       C  0.76833621  0.04666645  0.00537521    -0.12070
C1922       C  0.75725506  0.02482085  0.04931750     0.04940
C1923       C  0.72770288  0.48547034  0.05334453    -0.07350
C1924       C  0.71223936  0.46856305  0.01318268    -0.08100
C1925       C  0.72448576  0.48910191  0.96877603    -0.02650
C1926       C  0.75151789  0.03023110  0.96555041     0.04170
N1927       N  0.75960457  0.05743868  0.92466914     0.66670
H1928       H  0.78955334  0.07772832  0.00237815     0.15570
H1929       H  0.69014564  0.43828264  0.01678167     0.15280
N1930       N  0.71268313  0.46166919  0.09711242     0.74380
O1931       O  0.76947067  0.09547388  0.92863052    -0.39070
O1932       O  0.75690435  0.04416986  0.88466207    -0.39020
O1933       O  0.68155752  0.43399146  0.10184552    -0.39720
O1934       O  0.73083004  0.46489372  0.12958082    -0.39790
C1935       C  0.98584637  0.21271635  0.04001957    -0.12070
C1936       C  0.98170855  0.24419378  0.06285418     0.04940
C1937       C  0.99399704  0.28274236  0.03747378    -0.07350
C1938       C  0.00813505  0.28793167  0.99047292    -0.08100
C1939       C  0.51109316  0.25586174  0.96702246    -0.02650
C1940       C  0.49995471  0.21791393  0.99328734     0.04170
N1941       N  0.50099399  0.18308181  0.97314795     0.66670
H1942       H  0.47702808  0.18278659  0.05768956     0.15570
H1943       H  0.01786934  0.31804951  0.97262070     0.15280
N1944       N  0.99280407  0.31729387  0.05887210     0.74380
O1945       O  0.52164630  0.17043515  0.98617503    -0.39070
O1946       O  0.47522963  0.15885593  0.95392309    -0.39020
O1947       O  0.00270654  0.32611419  0.09848764    -0.39720
O1948       O  0.98534520  0.34150381  0.03630901    -0.39790
C1949       C  0.74705311  0.23214258  0.95904294    -0.12070
C1950       C  0.72049860  0.24339299  0.96986054     0.04940
C1951       C  0.71012757  0.24517262  0.01726732    -0.07350
C1952       C  0.72813999  0.23913459  0.05185816    -0.08100
C1953       C  0.75614639  0.23059840  0.04076023    -0.02650
C1954       C  0.76403854  0.22398056  0.99397085     0.04170
N1955       N  0.78712481  0.20637799  0.98153192     0.66670
H1956       H  0.75371591  0.22828877  0.92313779     0.15570
H1957       H  0.72150848  0.24367657  0.08754697     0.15280
N1958       N  0.68423431  0.25799422  0.03057286     0.74380
O1959       O  0.78819149  0.17968770  0.00875234    -0.39070
O1960       O  0.80045409  0.21053296  0.94004009    -0.39020
O1961       O  0.66410844  0.24325274  0.06780863    -0.39720
O1962       O  0.68663124  0.29010663  0.01046373    -0.39790
C1963       C  0.88102105  0.68964217  0.00715804     0.42660
N1964       N  0.86630762  0.70036962  0.07553876     0.01550
C1965       C  0.83754215  0.58448537  0.27733233    -0.06330
H1966       H  0.73371524  0.53643564  0.14981277     0.07040
C1967       C  0.71415670  0.64099804  0.22331941    -0.06680
Co1968     Co  0.86309105  0.63685671  0.14255460     0.74180
N1969       N  0.78783029  0.57377966  0.15787461    -0.25860
Co1970     Co  0.78774105  0.60176261  0.21996465     0.74070
C1971       C  0.69387692  0.59848778  0.24379032     0.42760
N1972       N  0.79217348  0.72079442  0.14396240     0.01160
N1973       N  0.74341155  0.60707084  0.20832127     0.01270
N1974       N  0.88681945  0.61051174  0.22782217    -0.46710
H1975       H  0.88027882  0.62870970  0.03224986     0.07030
N1976       N  0.81660049  0.58594458  0.12911180     0.01550
N1977       N  0.78828412  0.63370576  0.27806912     0.01290
C1978       C  0.78919453  0.65211101  0.34738154     0.42900
N1979       N  0.82115893  0.73471913  0.11531771    -0.25310
C1980       C  0.93947668  0.69239416  0.13158480    -0.06230
N1981       N  0.87446469  0.71628335  0.03259413    -0.46420
N1982       N  0.78842612  0.62175641  0.32103086    -0.46640
C1983       C  0.95998198  0.73435922  0.10958992     0.42670
N1984       N  0.86072750  0.61127270  0.20817728     0.01540
N1985       N  0.86508204  0.76178699  0.19270416    -0.25340
N1986       N  0.86638838  0.66443849  0.07962140    -0.25830
N1987       N  0.83625648  0.74881134  0.22140142     0.01180
H1988       H  0.91816969  0.80652354  0.19786094     0.07070
H1989       H  0.79140324  0.71402477  0.32476368     0.07110
N1990       N  0.83174750  0.59691754  0.23665144    -0.25880
N1991       N  0.74477274  0.64395955  0.20472639    -0.25490
N1992       N  0.91056648  0.72709901  0.14475500     0.01550
C1993       C  0.77584072  0.54494246  0.09002842     0.42940
C1994       C  0.81476807  0.74334319  0.07323831    -0.06740
N1995       N  0.78948729  0.67045485  0.27447924    -0.25490
H1996       H  0.71084604  0.66764804  0.23273073     0.07090
N1997       N  0.81044244  0.56999363  0.08808604    -0.46710
H1998       H  0.83314663  0.75335022  0.04222127     0.07080
C1999       C  0.87503755  0.79570885  0.25727365     0.42780
C2000       C  0.87556072  0.65499977  0.03837788    -0.06240
Co2001     Co  0.86577734  0.73203984  0.13255456     0.73820
N2002       N  0.76545764  0.71832994  0.12308154    -0.46430
C2003       C  0.87426201  0.59359162  0.27168543     0.43040
N2004       N  0.94040016  0.75370994  0.12112299    -0.46420
Co2005     Co  0.79055355  0.69698559  0.21058367     0.73890
C2006       C  0.78974396  0.68437321  0.31666755    -0.06750
C2007       C  0.76079951  0.54826796  0.13628678    -0.06310
N2008       N  0.90896628  0.69003652  0.14983948    -0.25840
N2009       N  0.71353390  0.57963636  0.23076962    -0.46600
H2010       H  0.81875831  0.57257815  0.30786554     0.07050
C2011       C  0.89110653  0.79154362  0.21219881    -0.06720
Cl2012     Cl  0.82697202  0.66706230  0.17669352    -0.49720
C2013       C  0.77770455  0.73155986  0.07807398     0.42810
H2014       H  0.94235891  0.66532686  0.12296690     0.07020
N2015       N  0.84133206  0.76755014  0.26059609    -0.46430
C2016       C  0.77874993  0.54514246  0.58421109     0.42660
N2017       N  0.82027760  0.58610229  0.62192497     0.01550
C2018       C  0.81803498  0.68950028  0.81282455    -0.06330
H2019       H  0.72645722  0.67594866  0.74373742     0.07040
C2020       C  0.82337719  0.75211004  0.57836668    -0.06680
Co2021     Co  0.79740689  0.60146477  0.71604203     0.74180
N2022       N  0.75677618  0.64878414  0.71149140    -0.25860
Co2023     Co  0.80410175  0.70033109  0.71305832     0.74070
C2024       C  0.78685787  0.74244077  0.58599085     0.42760
N2025       N  0.87039428  0.70198028  0.57013456     0.01160
N2026       N  0.80219836  0.72563240  0.64835549     0.01270
N2027       N  0.81637227  0.62669190  0.81354389    -0.46710
H2028       H  0.73783688  0.53372864  0.64726164     0.07030
N2029       N  0.75362864  0.61095462  0.71422023     0.01550
N2030       N  0.85130366  0.75222414  0.72078840     0.01290
C2031       C  0.89227185  0.80045363  0.75312547     0.42900
N2032       N  0.86807200  0.66468681  0.57136795    -0.25310
C2033       C  0.84377163  0.56990617  0.75980487    -0.06230
N2034       N  0.81325537  0.56979887  0.58143298    -0.46420
N2035       N  0.85824833  0.77314096  0.75859274    -0.46640
C2036       C  0.88024244  0.57835468  0.75361779     0.42670
N2037       N  0.80637447  0.63517003  0.77491462     0.01540
N2038       N  0.91547615  0.68681481  0.63797608    -0.25340
N2039       N  0.79220126  0.57394723  0.65217642    -0.25830
N2040       N  0.91845284  0.72467173  0.63562670     0.01180
H2041       H  0.94554128  0.66057276  0.60386621     0.07070
H2042       H  0.93262891  0.80859996  0.69092829     0.07110
N2043       N  0.80818517  0.67240082  0.77329377    -0.25880
N2044       N  0.83036328  0.73980667  0.61805048    -0.25490
N2045       N  0.86874337  0.60679209  0.69579122     0.01550
C2046       C  0.70783081  0.60693394  0.75603520     0.42940
C2047       C  0.86566818  0.65170872  0.52862573    -0.06740
N2048       N  0.87898910  0.76357512  0.69037717    -0.25490
H2049       H  0.84085288  0.76325612  0.54655589     0.07090
N2050       N  0.72475574  0.58546147  0.74062031    -0.46710
H2051       H  0.86218547  0.62175755  0.51898169     0.07080
C2052       C  0.96527963  0.72988548  0.59562146     0.42780
C2053       C  0.76455857  0.54755359  0.63175699    -0.06240
Co2054     Co  0.86841474  0.63542855  0.63251026     0.73820
N2055       N  0.86911700  0.71534211  0.52831718    -0.46430
C2056       C  0.82463189  0.65990244  0.83883101     0.43040
N2057       N  0.89414875  0.60166504  0.71272434    -0.46420
Co2058     Co  0.87477221  0.73335059  0.62912045     0.73890
C2059       C  0.90629267  0.79370545  0.70773402    -0.06750
C2060       C  0.72823626  0.64845111  0.73419341    -0.06310
N2061       N  0.83971458  0.59028357  0.72408210    -0.25840
N2062       N  0.77522038  0.72611472  0.63043298    -0.46600
H2063       H  0.82204265  0.71996326  0.82092827     0.07050
C2064       C  0.94454770  0.68784976  0.61637211    -0.06720
Cl2065     Cl  0.83617575  0.66762678  0.67280614    -0.49720
C2066       C  0.86671166  0.68547576  0.50027078     0.42810
H2067       H  0.82401060  0.55373956  0.78855211     0.07020
N2068       N  0.94776451  0.75068940  0.61069417    -0.46430
C2069       C  0.71704392  0.75629267  0.42881360     0.42660
N2070       N  0.67673910  0.75598164  0.39017743     0.01550
C2071       C  0.69575906  0.88031927  0.19963567    -0.06330
H2072       H  0.77938251  0.95126161  0.27244941     0.07040
C2073       C  0.67511013  0.92248081  0.43506794    -0.06680
Co2074     Co  0.70354961  0.80217355  0.29764313     0.74180
N2075       N  0.74641678  0.89201928  0.30711261    -0.25860
Co2076     Co  0.69994450  0.89509170  0.30232910     0.74070
C2077       C  0.71147667  0.95347668  0.42885015     0.42760
N2078       N  0.62750059  0.81908228  0.44078313     0.01160
N2079       N  0.69911127  0.91926604  0.36745196     0.01270
N2080       N  0.69654323  0.81868055  0.19667170    -0.46710
H2081       H  0.75906698  0.79080460  0.36708702     0.07030
N2082       N  0.74807782  0.85662215  0.30588845     0.01550
N2083       N  0.65345808  0.89705243  0.29105892     0.01290
C2084       C  0.61361552  0.90234223  0.25655962     0.42900
N2085       N  0.63019236  0.78454687  0.43950294    -0.25310
C2086       C  0.65310287  0.72883839  0.24481133    -0.06230
N2087       N  0.68272347  0.74483264  0.43079256    -0.46420
N2088       N  0.64764329  0.91155456  0.25234949    -0.46640
C2089       C  0.61656337  0.69837469  0.25192641     0.42670
N2090       N  0.70050750  0.83244050  0.23852149     0.01540
N2091       N  0.58404521  0.75975687  0.37033437    -0.25340
N2092       N  0.70525592  0.77442244  0.36074258    -0.25830
N2093       N  0.58210460  0.79491473  0.37172924     0.01180
H2094       H  0.54938167  0.69833780  0.39715249     0.07070
H2095       H  0.57161831  0.86500625  0.31719567     0.07110
N2096       N  0.69936862  0.86796644  0.24107550    -0.25880
N2097       N  0.66998925  0.90243459  0.39597675    -0.25490
N2098       N  0.63061288  0.73194628  0.31345829     0.01550
C2099       C  0.79702055  0.90131434  0.26784452     0.42940
C2100       C  0.63292398  0.77335081  0.48222386    -0.06740
N2101       N  0.62499754  0.87807595  0.32035313    -0.25490
H2102       H  0.65618700  0.91483985  0.46527083     0.07090
N2103       N  0.77779704  0.86140508  0.28326830    -0.46710
H2104       H  0.63627737  0.74671166  0.49153407     0.07080
C2105       C  0.53246352  0.74910552  0.40665959     0.42780
C2106       C  0.73211067  0.77563855  0.38171047    -0.06240
Co2107     Co  0.63019685  0.75698961  0.37788634     0.73820
N2108       N  0.62811129  0.83245687  0.48258609    -0.46430
C2109       C  0.69361409  0.84769991  0.17083557     0.43040
N2110       N  0.60409651  0.70256666  0.29514302    -0.46420
Co2111     Co  0.62596679  0.84920271  0.38173906     0.73890
C2112       C  0.59841516  0.87956860  0.30174749    -0.06750
C2113       C  0.77648525  0.92179637  0.28563046    -0.06310
N2114       N  0.65932313  0.74852161  0.28423731    -0.25840
N2115       N  0.72476849  0.94966939  0.38591306    -0.46600
H2116       H  0.69253232  0.90725763  0.19156330     0.07050
C2117       C  0.55324119  0.72908998  0.38813017    -0.06720
Cl2118     Cl  0.66499109  0.82589536  0.33989398    -0.49720
C2119       C  0.63145922  0.80520031  0.51075177     0.42810
H2120       H  0.67116201  0.73687891  0.21359875     0.07020
N2121       N  0.55165524  0.78934601  0.39232593    -0.46430
C2122       C  0.70408931  0.75281453  0.93128692     0.42660
N2123       N  0.66746615  0.76378204  0.89533955     0.01550
C2124       C  0.69885833  0.88874956  0.69915557    -0.06330
H2125       H  0.77682284  0.95698188  0.77346481     0.07040
C2126       C  0.66952751  0.93629881  0.93280124    -0.06680
Co2127     Co  0.69819036  0.81053934  0.80400731     0.74180
N2128       N  0.74315527  0.89981874  0.81153929    -0.25860
Co2129     Co  0.69763787  0.90499801  0.80366339     0.74070
C2130       C  0.70596265  0.96697023  0.92873475     0.42760
N2131       N  0.62174178  0.83308548  0.94132552     0.01160
N2132       N  0.69574641  0.93101603  0.86792865     0.01270
N2133       N  0.70066742  0.82781315  0.70179807    -0.46710
H2134       H  0.74792947  0.78636148  0.87136580     0.07030
N2135       N  0.74336519  0.86351031  0.81249377     0.01550
N2136       N  0.65247345  0.90843845  0.78886266     0.01290
C2137       C  0.61476048  0.91283670  0.74856178     0.42900
N2138       N  0.62177014  0.79684937  0.94167720    -0.25310
C2139       C  0.64967107  0.73855178  0.75070774    -0.06230
N2140       N  0.67086370  0.74681128  0.93409320    -0.46420
N2141       N  0.64846030  0.92150525  0.74803009    -0.46640
C2142       C  0.61352517  0.70718718  0.75605510     0.42670
N2143       N  0.69912518  0.84091093  0.74340396     0.01540
N2144       N  0.57738906  0.77273841  0.87253537    -0.25340
N2145       N  0.69661924  0.78090805  0.86692178    -0.25830
N2146       N  0.57616747  0.80840189  0.87352907     0.01180
H2147       H  0.54689393  0.71491691  0.90904571     0.07070
H2148       H  0.57045245  0.87811886  0.80776956     0.07110
N2149       N  0.69815194  0.87651633  0.74292904    -0.25880
N2150       N  0.66574482  0.91540028  0.89450689    -0.25490
N2151       N  0.62422483  0.74240846  0.81689968     0.01550
C2152       C  0.79171658  0.90433265  0.76967749     0.42940
C2153       C  0.62152445  0.78475756  0.98524103    -0.06740
N2154       N  0.62300440  0.89051005  0.81659901    -0.25490
H2155       H  0.64946447  0.92941175  0.96144042     0.07090
N2156       N  0.77174164  0.86562035  0.78852236    -0.46710
H2157       H  0.62181655  0.75651584  0.99650637     0.07080
C2158       C  0.52933845  0.76494352  0.91777795     0.42780
C2159       C  0.72122059  0.77524860  0.88631851    -0.06240
Co2160     Co  0.62256044  0.76815118  0.88096540     0.73820
N2161       N  0.62313285  0.84773114  0.98262849    -0.46430
C2162       C  0.70042364  0.85615018  0.67183431     0.43040
N2163       N  0.59903172  0.71177377  0.79789369    -0.46420
Co2164     Co  0.62160753  0.86250521  0.88061902     0.73890
C2165       C  0.59769616  0.89189834  0.79440991    -0.06750
C2166       C  0.77322038  0.92747417  0.78750317    -0.06310
N2167       N  0.65386063  0.75867582  0.78950073    -0.25840
N2168       N  0.72079706  0.96136033  0.88757083    -0.46600
H2169       H  0.69792051  0.91668169  0.68845558     0.07050
C2170       C  0.54826369  0.74364740  0.89660692    -0.06720
Cl2171     Cl  0.66007294  0.83659945  0.84245211    -0.49720
C2172       C  0.62344101  0.81902167  0.01180602     0.42810
H2173       H  0.66935961  0.74624647  0.72145196     0.07020
N2174       N  0.54777074  0.80433308  0.89952398    -0.46430
C2175       C  0.94912493  0.86528038  0.92447747     0.42660
N2176       N  0.98584979  0.91090390  0.96433875     0.01550
C2177       C  0.45924866  0.51300944  0.14886217    -0.06330
H2178       H  0.87936049  0.99479871  0.07066426     0.07040
C2179       C  0.98543881  0.58389992  0.91166450    -0.06680
Co2180     Co  0.95585375  0.92923239  0.05219866     0.74180
N2181       N  0.91301938  0.97213195  0.03822590    -0.25860
Co2182     Co  0.95903569  0.52576569  0.04404938     0.74070
C2183       C  0.94923927  0.57678066  0.91699545     0.42760
N2184       N  0.52979721  0.52614890  0.90847957     0.01160
N2185       N  0.96032890  0.55210043  0.97839334     0.01270
N2186       N  0.45863262  0.95080417  0.15348831    -0.46710
H2187       H  0.90328327  0.85697070  0.97876227     0.07030
N2188       N  0.91167946  0.93503807  0.04072813     0.01550
N2189       N  0.50578973  0.57771827  0.05552993     0.01290
C2190       C  0.54592306  0.62194356  0.09268123     0.42900
N2191       N  0.52922397  0.98964153  0.91236295    -0.25310
C2192       C  0.50495430  0.91223008  0.11014533    -0.06230
N2193       N  0.98277517  0.89168300  0.92550920    -0.46420
N2194       N  0.51153109  0.59623950  0.09509369    -0.46640
C2195       C  0.54135277  0.92075573  0.10534318     0.42670
N2196       N  0.95708150  0.96180070  0.11058324     0.01540
N2197       N  0.57608324  0.51657449  0.98056542    -0.25340
N2198       N  0.95599114  0.89930356  0.99028118    -0.25830
N2199       N  0.57802380  0.55358397  0.97387268     0.01180
H2200       H  0.60977612  0.49067382  0.95764193     0.07070
H2201       H  0.58861847  0.63028497  0.03378656     0.07110
N2202       N  0.95818831  0.49849846  0.10698723    -0.25880
N2203       N  0.98969789  0.56716505  0.95057475    -0.25490
N2204       N  0.52917910  0.93890389  0.04123069     0.01550
C2205       C  0.86261251  0.92608147  0.07760555     0.42940
C2206       C  0.02442230  0.97307968  0.87155369    -0.06740
N2207       N  0.53469116  0.58930594  0.02704990    -0.25490
H2208       H  0.00483306  0.59695073  0.88191681     0.07090
N2209       N  0.88205385  0.90729350  0.06358725    -0.46710
H2210       H  0.02201687  0.94313936  0.86358475     0.07080
C2211       C  0.62640719  0.55844752  0.93856768     0.42780
C2212       C  0.93088013  0.87092497  0.96751671    -0.06240
Co2213     Co  0.53047461  0.96356835  0.97540487     0.73820
N2214       N  0.02473641  0.53531716  0.86676078    -0.46430
C2215       C  0.45956243  0.48146384  0.17958273     0.43040
N2216       N  0.55478716  0.93727793  0.06141563    -0.46420
Co2217     Co  0.53333657  0.56002922  0.96533366     0.73890
C2218       C  0.56148942  0.61696773  0.04759688    -0.06750
C2219       C  0.88259726  0.96875438  0.05839259    -0.06310
N2220       N  0.49991048  0.92477508  0.06919877    -0.25840
N2221       N  0.93516926  0.55614882  0.95931095    -0.46600
H2222       H  0.46122832  0.54284528  0.15660045     0.07050
C2223       C  0.60623557  0.51779739  0.96276991    -0.06720
Cl2224     Cl  0.49458636  0.49463646  0.00924407    -0.49720
C2225       C  0.02141354  0.00318102  0.84208586     0.42810
H2226       H  0.48572292  0.90000707  0.14019636     0.07020
N2227       N  0.60760594  0.57897492  0.94870426    -0.46430
C2228       C  0.94407889  0.87243777  0.41665434     0.42660
N2229       N  0.98383297  0.91695750  0.45353003     0.01550
C2230       C  0.46144218  0.50797553  0.64864009    -0.06330
H2231       H  0.88503724  0.00198524  0.57236281     0.07040
C2232       C  0.98884252  0.58745671  0.41329440    -0.06680
Co2233     Co  0.95634611  0.92978886  0.54621877     0.74180
N2234       N  0.91488352  0.97568032  0.53769977    -0.25860
Co2235     Co  0.96172858  0.52715416  0.54477763     0.74070
C2236       C  0.95268100  0.58006417  0.41906503     0.42760
N2237       N  0.53526826  0.53562772  0.40579946     0.01160
N2238       N  0.96405590  0.55619749  0.48053295     0.01270
N2239       N  0.45934841  0.94461677  0.64711068    -0.46710
H2240       H  0.90168500  0.86029997  0.47760709     0.07030
N2241       N  0.91189978  0.93782301  0.53998618     0.01550
N2242       N  0.50799082  0.57723214  0.55863439     0.01290
C2243       C  0.54642285  0.62133018  0.59796832     0.42900
N2244       N  0.53269302  0.99817533  0.40592889    -0.24950
C2245       C  0.50552675  0.90599809  0.59757878    -0.06230
N2246       N  0.97817763  0.89946739  0.41349064    -0.46420
N2247       N  0.51248565  0.59448316  0.59889295    -0.46640
C2248       C  0.54174884  0.91335718  0.59023441     0.42670
N2249       N  0.95883168  0.95921743  0.60570862     0.01540
N2250       N  0.57728382  0.51771128  0.47592409    -0.25340
N2251       N  0.95518779  0.90369049  0.48280803    -0.25830
N2252       N  0.58023149  0.55549940  0.47501380     0.01180
H2253       H  0.60861999  0.49225041  0.44415752     0.07070
H2254       H  0.59028840  0.63393081  0.53864184     0.07110
N2255       N  0.96054224  0.49632770  0.60547542    -0.25880
N2256       N  0.99336008  0.57143336  0.45249612    -0.25490
N2257       N  0.52894753  0.93711282  0.53010464     0.01550
C2258       C  0.86450051  0.93242473  0.57999783     0.42940
C2259       C  0.03269635  0.98722639  0.36240831    -0.06740
N2260       N  0.53719871  0.59045785  0.53061831    -0.25490
H2261       H  0.00829743  0.60119323  0.38366987     0.07090
N2262       N  0.88240792  0.91174920  0.56514662    -0.46710
H2263       H  0.03006377  0.95785207  0.35178599     0.07080
C2264       C  0.62831646  0.56203607  0.43636684     0.42780
C2265       C  0.92859352  0.87553521  0.46262541    -0.06240
Co2266     Co  0.53072194  0.96667115  0.46687974     0.73820
N2267       N  0.03632587  0.55098086  0.36393157    -0.46430
C2268       C  0.46108897  0.47390099  0.67540987     0.43040
N2269       N  0.55472403  0.93347952  0.54769989    -0.46420
Co2270     Co  0.53672358  0.56420579  0.46664175     0.73890
C2271       C  0.56309688  0.61850143  0.55235018    -0.06750
C2272       C  0.88582151  0.97465016  0.55971748    -0.06310
N2273       N  0.50007251  0.92199464  0.55898514    -0.25840
N2274       N  0.93887330  0.56007628  0.46165491    -0.46600
H2275       H  0.46352550  0.53715475  0.65956559     0.07050
C2276       C  0.60701736  0.51939765  0.45569605    -0.06720
Cl2277     Cl  0.99633298  0.49693007  0.50608163    -0.49720
C2278       C  0.03524875  0.02230133  0.33469694     0.42810
H2279       H  0.48709294  0.89319657  0.62838065     0.07020
N2280       N  0.61023144  0.58221295  0.45199523    -0.46430
C2281       C  0.96041144  0.49002447  0.75473748    -0.12070
C2282       C  0.47619306  0.47888458  0.71779023     0.04940
C2283       C  0.50749247  0.97650168  0.72103487    -0.07350
C2284       C  0.01993866  0.98079168  0.76399964    -0.08100
C2285       C  0.00478114  0.99343185  0.80042192    -0.02650
C2286       C  0.97504299  0.49826529  0.79571764     0.04170
N2287       N  0.96258302  0.51754816  0.82909821     0.66670
H2288       H  0.93751383  0.49418238  0.75109467     0.15570
H2289       H  0.04351170  0.97843659  0.76783584     0.15280
N2290       N  0.52911510  0.97512544  0.68107400     0.74380
O2291       O  0.96623132  0.55296672  0.81820255    -0.39070
O2292       O  0.94718257  0.49926528  0.86800609    -0.39020
O2293       O  0.53095821  0.99373291  0.64304493    -0.39720
O2294       O  0.05294424  0.96549640  0.68700284    -0.39790
C2295       C  0.51189787  0.49584642  0.21492553    -0.12070
C2296       C  0.47812073  0.49214435  0.22003802     0.04940
C2297       C  0.96475301  0.50258087  0.26122039    -0.07350
C2298       C  0.98559372  0.01476111  0.29721865    -0.08100
C2299       C  0.01884699  0.01709483  0.29264025    -0.02650
C2300       C  0.53297148  0.00878238  0.25073489     0.04170
N2301       N  0.56826173  0.01414882  0.24341277     0.66670
H2302       H  0.52204219  0.48933353  0.18219398     0.15570
H2303       H  0.97542515  0.02126257  0.32994428     0.15280
N2304       N  0.93025245  0.49966629  0.26817085     0.74380
O2305       O  0.58023936  0.00812601  0.20448642    -0.39070
O2306       O  0.58866034  0.52814324  0.27402203    -0.39020
O2307       O  0.91306085  0.99690501  0.23463492    -0.39720
O2308       O  0.91685984  0.50064237  0.30843401    -0.39790
C2309       C  0.56476403  0.88048651  0.70233840    -0.12070
C2310       C  0.59792322  0.91264514  0.70586352     0.04940
C2311       C  0.61408524  0.94315228  0.66846759    -0.07350
C2312       C  0.59648745  0.94090148  0.62923887    -0.08100
C2313       C  0.56255078  0.90946963  0.62675179    -0.02650
C2314       C  0.54711791  0.87821444  0.66347002     0.04170
N2315       N  0.51400901  0.84319053  0.66137639     0.66670
H2316       H  0.55259658  0.85621075  0.72985961     0.15570
H2317       H  0.60844824  0.96554198  0.60208572     0.15280
N2318       N  0.64653744  0.97880715  0.67167714     0.74380
O2319       O  0.99489898  0.82443122  0.69827056    -0.39070
O2320       O  0.50659684  0.82679183  0.62346471    -0.39020
O2321       O  0.67399203  0.97519408  0.67270483    -0.39720
O2322       O  0.64864151  0.01437750  0.66665666    -0.39790
C2323       C  0.56041824  0.67127682  0.71496622    -0.12070
C2324       C  0.59509999  0.68069113  0.71881843     0.04940
C2325       C  0.61303611  0.66848498  0.68386839    -0.07350
C2326       C  0.59692049  0.65021831  0.64465167    -0.08100
C2327       C  0.56272360  0.64245588  0.63956789    -0.02650
C2328       C  0.54404624  0.65245745  0.67600775     0.04170
N2329       N  0.50898107  0.64542446  0.67345933     0.66670
H2330       H  0.54640904  0.68049879  0.74134741     0.15570
H2331       H  0.61102519  0.64093087  0.61850184     0.15280
N2332       N  0.64713607  0.67289516  0.68850751     0.74380
O2333       O  0.98737549  0.63364870  0.70954779    -0.39070
O2334       O  0.50104784  0.65700861  0.63723115    -0.39020
O2335       O  0.65351954  0.66136861  0.72612816    -0.39720
O2336       O  0.67027078  0.68559104  0.65411030    -0.39790
C2337       C  0.81134635  0.94067052  0.68958980    -0.12070
C2338       C  0.81194434  0.91176925  0.72191779     0.04940
C2339       C  0.82763952  0.88680586  0.70545318    -0.07350
C2340       C  0.84325437  0.89298040  0.65883730    -0.08100
C2341       C  0.84301001  0.92243903  0.62700355    -0.02650
C2342       C  0.82551196  0.94530426  0.64275020     0.04170
N2343       N  0.82066735  0.97246338  0.61133232     0.66670
H2344       H  0.79803451  0.95861627  0.69981154     0.15570
H2345       H  0.85643915  0.87501329  0.64769431     0.15280
N2346       N  0.82772057  0.85460585  0.73478959     0.74380
O2347       O  0.81231584  0.96169169  0.57144913    -0.39070
O2348       O  0.82084638  0.00513448  0.62522446    -0.39020
O2349       O  0.82769323  0.82312521  0.71726087    -0.39720
O2350       O  0.83045280  0.85860824  0.77750096    -0.39790
C2351       C  0.66482004  0.85947763  0.56034535    -0.12070
C2352       C  0.64727203  0.81720957  0.55352855     0.04940
C2353       C  0.64965244  0.78840778  0.58382741    -0.07350
C2354       C  0.67007456  0.80247181  0.61978955    -0.08100
C2355       C  0.68694088  0.84471872  0.62736764    -0.02650
C2356       C  0.68521720  0.87361604  0.59637827     0.04170
N2357       N  0.70434440  0.91719374  0.60021642     0.66670
H2358       H  0.66413368  0.88205373  0.53631253     0.15570
H2359       H  0.67083243  0.77972477  0.64350734     0.15280
N2360       N  0.63076835  0.74489220  0.57959039     0.74380
O2361       O  0.73594940  0.93311640  0.60693825    -0.39070
O2362       O  0.69055397  0.94027916  0.59262625    -0.39020
O2363       O  0.64620026  0.72274431  0.58004845    -0.39720
O2364       O  0.59853630  0.72835815  0.57644613    -0.39790
C2365       C  0.62220235  0.81355022  0.09473718    -0.12070
C2366       C  0.64194957  0.83016891  0.05198192     0.04940
C2367       C  0.67872600  0.85403706  0.04858197    -0.07350
C2368       C  0.69449726  0.85687930  0.08877463    -0.08100
C2369       C  0.67486487  0.83888510  0.13104452    -0.02650
C2370       C  0.63810953  0.81881913  0.13514702     0.04170
N2371       N  0.61657229  0.80543582  0.17922467     0.66670
H2372       H  0.59412716  0.79633163  0.09652603     0.15570
H2373       H  0.72249858  0.87355100  0.08740737     0.15280
N2374       N  0.70088093  0.87322253  0.00548571     0.74380
O2375       O  0.58660573  0.80336286  0.18321989    -0.39070
O2376       O  0.62635740  0.79395953  0.21375823    -0.39020
O2377       O  0.69066329  0.86233709  0.96649350    -0.39720
O2378       O  0.73243137  0.89867948  0.00638716    -0.39790
C2379       C  0.54717288  0.91566111  0.18977996    -0.12070
C2380       C  0.56100352  0.91753867  0.14344970     0.04940
C2381       C  0.59298250  0.91627957  0.13493348    -0.07350
C2382       C  0.60929295  0.91093276  0.17226699    -0.08100
C2383       C  0.59554868  0.90924554  0.21859623    -0.02650
C2384       C  0.56462500  0.91330468  0.22731089     0.04170
N2385       N  0.55186497  0.91814059  0.27324610     0.66670
H2386       H  0.52345137  0.91843114  0.19701571     0.15570
H2387       H  0.63282163  0.90778583  0.16511479     0.15280
N2388       N  0.60895595  0.91975900  0.08862275     0.74380
O2389       O  0.52005793  0.90843983  0.28308072    -0.39070
O2390       O  0.57297685  0.93940450  0.30068583    -0.39020
O2391       O  0.62646230  0.95483651  0.06745676    -0.39720
O2392       O  0.60822465  0.88826774  0.07039738    -0.39790
C2393       C  0.58272790  0.62559386  0.15521041    -0.12070
C2394       C  0.56380168  0.64214447  0.13341860     0.04940
C2395       C  0.56020265  0.67561132  0.15295295    -0.07350
C2396       C  0.57580147  0.69154563  0.19351825    -0.08100
C2397       C  0.59537523  0.67558388  0.21467707    -0.02650
C2398       C  0.59829864  0.64161849  0.19570138     0.04170
N2399       N  0.61612509  0.62242072  0.21777971     0.66670
H2400       H  0.58458909  0.59920593  0.14119237     0.15570
H2401       H  0.57386741  0.71778534  0.20770409     0.15280
N2402       N  0.54217836  0.69486749  0.13123953     0.74380
O2403       O  0.62940035  0.60314733  0.19440534    -0.39070
O2404       O  0.61537508  0.62075521  0.26136599    -0.39020
O2405       O  0.54124406  0.69508819  0.08791514    -0.39720
O2406       O  0.53026171  0.71550754  0.15455836    -0.39790
C2407       C  0.86180885  0.91297046  0.16270345    -0.12070
C2408       C  0.84452086  0.91709590  0.12583838     0.04940
C2409       C  0.81269521  0.91810733  0.13613828    -0.07350
C2410       C  0.79881242  0.91520074  0.18278181    -0.08100
C2411       C  0.81596908  0.91093046  0.21992212    -0.02650
C2412       C  0.84826460  0.91025693  0.20959114     0.04170
N2413       N  0.86819871  0.90830223  0.24571757     0.66670
H2414       H  0.88680098  0.91335864  0.15476621     0.15570
H2415       H  0.77370717  0.91474604  0.19002902     0.15280
N2416       N  0.79409230  0.92162959  0.09949950     0.74380
O2417       O  0.89303318  0.89953907  0.23660292    -0.39070
O2418       O  0.86305678  0.91847499  0.28600029    -0.39020
O2419       O  0.79259600  0.90240032  0.06332831    -0.39720
O2420       O  0.77977887  0.94491104  0.10266728    -0.39790
C2421       C  0.89991604  0.54421643  0.86834089    -0.12070
C2422       C  0.92958560  0.57955951  0.87806550     0.04940
C2423       C  0.94365052  0.61395885  0.84503466    -0.07350
C2424       C  0.92870583  0.61201970  0.80344027    -0.08100
C2425       C  0.89984354  0.57617915  0.79289320    -0.02650
C2426       C  0.88559858  0.54164419  0.82591501     0.04170
N2427       N  0.85694038  0.50353136  0.81653280     0.66670
H2428       H  0.88936527  0.51723212  0.89242529     0.15570
H2429       H  0.93913100  0.63934520  0.77989244     0.15280
N2430       N  0.97274500  0.65164241  0.85344000     0.74380
O2431       O  0.83597167  0.47939773  0.84943569    -0.39070
O2432       O  0.85460623  0.49187183  0.77576228    -0.39020
O2433       O  0.00305737  0.65732251  0.83930371    -0.39720
O2434       O  0.96789770  0.68239752  0.86313750    -0.39790
C2435       C  0.65782179  0.55806693  0.80988664    -0.12070
C2436       C  0.68742628  0.59611055  0.80303468     0.04940
C2437       C  0.69851534  0.61944231  0.84236988    -0.07350
C2438       C  0.67853669  0.60527812  0.88595652    -0.08100
C2439       C  0.64838333  0.56754207  0.89270654    -0.02650
C2440       C  0.63824642  0.54321072  0.85365073     0.04170
N2441       N  0.60802169  0.50397461  0.85609630     0.66670
H2442       H  0.64995764  0.53918343  0.78057906     0.15570
H2443       H  0.68685439  0.62419070  0.91514393     0.15280
N2444       N  0.73104466  0.65583435  0.84047492     0.74380
O2445       O  0.58986676  0.49576608  0.82275685    -0.39070
O2446       O  0.60711054  0.47417482  0.87987815    -0.39020
O2447       O  0.73355100  0.68938548  0.82381656    -0.39720
O2448       O  0.75174503  0.65724652  0.86886224    -0.39790
C2449       C  0.92205096  0.86926037  0.85387359    -0.12070
C2450       C  0.93551183  0.84828167  0.87999087     0.04940
C2451       C  0.93963501  0.81507328  0.86010600    -0.07350
C2452       C  0.92576350  0.80061848  0.81817960    -0.08100
C2453       C  0.91123898  0.82080839  0.79299674    -0.02650
C2454       C  0.91146118  0.85722523  0.80965902     0.04170
N2455       N  0.90294641  0.88343431  0.78137479     0.66670
H2456       H  0.92151377  0.89658786  0.86716807     0.15570
H2457       H  0.92652803  0.77346712  0.80468422     0.15280
N2458       N  0.95757263  0.79557982  0.88152991     0.74380
O2459       O  0.89692003  0.91119925  0.79931833    -0.39070
O2460       O  0.90625930  0.88299872  0.73771988    -0.39020
O2461       O  0.98210509  0.81588690  0.90496632    -0.39720
O2462       O  0.95168701  0.75930577  0.87275918    -0.39790
C2463       C  0.71286302  0.99555133  0.49641299    -0.12070
C2464       C  0.73067197  0.98040541  0.46540233     0.04940
C2465       C  0.76474779  0.98830722  0.47295984    -0.07350
C2466       C  0.77922922  0.50923182  0.51192592    -0.08100
C2467       C  0.76119013  0.52362938  0.54354236    -0.02650
C2468       C  0.72795560  0.01808201  0.53435419     0.04170
N2469       N  0.70962300  0.03610257  0.56172037     0.66670
H2470       H  0.68705601  0.99053927  0.49037688     0.15570
H2471       H  0.80508774  0.51430863  0.51759014     0.15280
N2472       N  0.78463715  0.97411701  0.44275652     0.74380
O2473       O  0.72571746  0.07263483  0.57335868    -0.39070
O2474       O  0.67680899  0.01871785  0.56682448    -0.39020
O2475       O  0.79319898  0.48773886  0.40081339    -0.39720
O2476       O  0.79967728  0.95536503  0.45981491    -0.39790
C2477       C  0.50157426  0.71455512  0.53548469    -0.12070
C2478       C  0.98382917  0.73754743  0.54756289     0.04940
C2479       C  0.97971541  0.76138211  0.51158149    -0.07350
C2480       C  0.99378619  0.76172964  0.46578621    -0.08100
C2481       C  0.51211718  0.73931371  0.45385803    -0.02650
C2482       C  0.51533718  0.71478401  0.48975476     0.04170
N2483       N  0.53200092  0.68927876  0.48132078     0.66670
H2484       H  0.50454617  0.69551396  0.56189048     0.15570
H2485       H  0.99125574  0.78089476  0.43918714     0.15280
N2486       N  0.96123817  0.78518569  0.52003715     0.74380
O2487       O  0.56433460  0.70429366  0.48252836    -0.39070
O2488       O  0.51381604  0.65072049  0.48673737    -0.39020
O2489       O  0.97333658  0.81572661  0.54455487    -0.39720
O2490       O  0.93874463  0.78253791  0.49401891    -0.39790
C2491       C  0.78232339  0.78110818  0.51832056    -0.12070
C2492       C  0.76635247  0.74555442  0.54882611     0.04940
C2493       C  0.73328424  0.71413927  0.54059646    -0.07350
C2494       C  0.71769606  0.71972556  0.50220716    -0.08100
C2495       C  0.73446941  0.75458762  0.47050601    -0.02650
C2496       C  0.76674106  0.78664648  0.48014088     0.04170
N2497       N  0.78297161  0.82610795  0.45426582     0.66670
H2498       H  0.80712638  0.80561448  0.52521662     0.15570
H2499       H  0.69259690  0.69564740  0.49595524     0.15280
N2500       N  0.71606243  0.67548676  0.56823657     0.74380
O2501       O  0.76456943  0.84184224  0.44061247    -0.39070
O2502       O  0.81521906  0.84892708  0.45386778    -0.39020
O2503       O  0.73347016  0.65950559  0.58450239    -0.39720
O2504       O  0.68356666  0.65385831  0.56966658    -0.39790
C2505       C  0.87057796  0.65042607  0.93910911    -0.12070
C2506       C  0.87922148  0.68834076  0.95758399     0.04940
C2507       C  0.87675016  0.71984579  0.93198382    -0.07350
C2508       C  0.86121275  0.71035441  0.89112107    -0.08100
C2509       C  0.84638060  0.66971000  0.87716914    -0.02650
C2510       C  0.85242941  0.63990748  0.90095586     0.04170
N2511       N  0.84140178  0.59916948  0.88662518     0.66670
H2512       H  0.87481069  0.62700052  0.95667062     0.15570
H2513       H  0.85920289  0.73469127  0.87203925     0.15280
N2514       N  0.88751988  0.76037597  0.94845224     0.74380
O2515       O  0.85487602  0.59559824  0.84804447    -0.39070
O2516       O  0.82961310  0.56908121  0.91657598    -0.39020
O2517       O  0.91438512  0.77703433  0.96909473    -0.39720
O2518       O  0.87104080  0.78040552  0.94069660    -0.39790
C2519       C  0.84326339  0.66877411  0.37910945    -0.12070
C2520       C  0.80864596  0.66197324  0.38679513     0.04940
C2521       C  0.79370310  0.66420629  0.43101835    -0.07350
C2522       C  0.81401466  0.67243700  0.46740264    -0.08100
C2523       C  0.84857529  0.67895733  0.45987373    -0.02650
C2524       C  0.86392423  0.67747516  0.41531817     0.04170
N2525       N  0.89977191  0.68507609  0.40583077     0.66670
H2526       H  0.85406058  0.66714877  0.34438793     0.15570
H2527       H  0.80282308  0.67369689  0.50203946     0.15280
N2528       N  0.75816332  0.65712788  0.43979906     0.74380
O2529       O  0.91899236  0.69151644  0.43780020    -0.39070
O2530       O  0.91278400  0.68621025  0.36468302    -0.39020
O2531       O  0.74093754  0.64161182  0.47879768    -0.39720
O2532       O  0.74452259  0.66877713  0.41001280    -0.39790
C2533       C  0.94794342  0.59382532  0.33562459    -0.12070
C2534       C  0.93307722  0.58634616  0.38229026     0.04940
C2535       C  0.89953188  0.58360313  0.39216917    -0.07350
C2536       C  0.88094968  0.58488783  0.35541351    -0.08100
C2537       C  0.89533809  0.59099993  0.30859890    -0.02650
C2538       C  0.92986655  0.59645467  0.29891594     0.04170
N2539       N  0.94712904  0.60406794  0.25239003     0.66670
H2540       H  0.97364874  0.59638882  0.32697031     0.15570
H2541       H  0.85541817  0.58287059  0.36394590     0.15280
N2542       N  0.88466560  0.58193060  0.43903750     0.74380
O2543       O  0.97888898  0.62971222  0.24429727    -0.39070
O2544       O  0.93274860  0.58053832  0.22126725    -0.39020
O2545       O  0.90335457  0.60459703  0.46794840    -0.39720
O2546       O  0.85209854  0.56386049  0.44927607    -0.39790
C2547       C  0.65047558  0.54182477  0.36223714    -0.12070
C2548       C  0.64786071  0.57287576  0.38819976     0.04940
C2549       C  0.65878816  0.61197101  0.36476985    -0.07350
C2550       C  0.67119398  0.61867075  0.31724444    -0.08100
C2551       C  0.67362859  0.58758736  0.29131375    -0.02650
C2552       C  0.66216242  0.54823796  0.31440038     0.04170
N2553       N  0.66156822  0.51405388  0.28981609     0.66670
H2554       H  0.64210419  0.51144787  0.37837886     0.15570
H2555       H  0.67998537  0.64922552  0.30124955     0.15280
N2556       N  0.65795448  0.64567272  0.38860946     0.74380
O2557       O  0.66825116  0.48775775  0.30947392    -0.39070
O2558       O  0.65049559  0.50741746  0.25060504    -0.39020
O2559       O  0.67053630  0.65462653  0.42663380    -0.39720
O2560       O  0.64816065  0.66924375  0.36933098    -0.39790
C2561       C  0.89384992  0.84928753  0.37071809    -0.12070
C2562       C  0.92611706  0.85092140  0.37677871     0.04940
C2563       C  0.94142931  0.83438917  0.34322445    -0.07350
C2564       C  0.92471196  0.81874363  0.30363369    -0.08100
C2565       C  0.89245883  0.81710912  0.29745577    -0.02650
C2566       C  0.87651675  0.83253669  0.33171939     0.04170
N2567       N  0.84357055  0.83261684  0.32762181     0.66670
H2568       H  0.88249164  0.86235640  0.39621398     0.15570
H2569       H  0.93614761  0.80556714  0.27838311     0.15280
N2570       N  0.97255279  0.83085778  0.34977199     0.74380
O2571       O  0.82802097  0.84079929  0.36172490    -0.39070
O2572       O  0.83144620  0.82896255  0.28926375    -0.39020
O2573       O  0.98037469  0.82827512  0.38999775    -0.39720
O2574       O  0.98944852  0.82402901  0.31603649    -0.39790
C2575       C  0.76833621  0.54666644  0.00537521    -0.12070
C2576       C  0.75725507  0.52482085  0.04931751     0.04940
C2577       C  0.72770287  0.98547034  0.05334453    -0.07350
C2578       C  0.71223936  0.96856305  0.01318267    -0.08100
C2579       C  0.72448576  0.98910192  0.96877603    -0.02650
C2580       C  0.75151789  0.53023109  0.96555041     0.04170
N2581       N  0.75960457  0.55743867  0.92466915     0.66670
H2582       H  0.78955335  0.57772832  0.00237815     0.15570
H2583       H  0.69014564  0.93828264  0.01678166     0.15280
N2584       N  0.71268313  0.96166919  0.09711241     0.74380
O2585       O  0.76947067  0.59547387  0.92863053    -0.39070
O2586       O  0.75690434  0.54416986  0.88466207    -0.39020
O2587       O  0.68155752  0.93399145  0.10184552    -0.39720
O2588       O  0.73083004  0.96489372  0.12958081    -0.39790
C2589       C  0.98584637  0.71271636  0.04001956    -0.12070
C2590       C  0.98170856  0.74419379  0.06285418     0.04940
C2591       C  0.99399705  0.78274238  0.03747378    -0.07350
C2592       C  0.00813506  0.78793169  0.99047292    -0.08100
C2593       C  0.51109315  0.75586174  0.96702245    -0.02650
C2594       C  0.49995469  0.71791393  0.99328732     0.04170
N2595       N  0.50099396  0.68308181  0.97314792     0.66670
H2596       H  0.47702806  0.68278659  0.05768954     0.15570
H2597       H  0.01786934  0.81804953  0.97262071     0.15280
N2598       N  0.99280408  0.81729388  0.05887211     0.74380
O2599       O  0.52164625  0.67043512  0.98617500    -0.39070
O2600       O  0.47522959  0.65885594  0.95392306    -0.39020
O2601       O  0.00270655  0.82611420  0.09848765    -0.39720
O2602       O  0.98534521  0.84150383  0.03630903    -0.39790
C2603       C  0.74705312  0.73214261  0.95904294    -0.12070
C2604       C  0.72049859  0.74339299  0.96986056     0.04940
C2605       C  0.71012755  0.74517259  0.01726734    -0.07350
C2606       C  0.72813997  0.73913456  0.05185817    -0.08100
C2607       C  0.75614639  0.73059840  0.04076024    -0.02650
C2608       C  0.76403855  0.72398059  0.99397085     0.04170
N2609       N  0.78712483  0.70637804  0.98153190     0.66670
H2610       H  0.75371592  0.72828882  0.92313779     0.15570
H2611       H  0.72150846  0.74367652  0.08754699     0.15280
N2612       N  0.68423426  0.75799415  0.03057290     0.74380
O2613       O  0.78819152  0.67968775  0.00875230    -0.39070
O2614       O  0.80045412  0.71053303  0.94004007    -0.39020
O2615       O  0.66410838  0.74325262  0.06780866    -0.39720
O2616       O  0.68663118  0.79010657  0.01046382    -0.39790
loop_ 
_geom_bond_atom_site_label_1 
_geom_bond_atom_site_label_2 
_geom_bond_distance 
_geom_bond_site_symmetry_2 
_ccdc_geom_bond_type 
C1           N19   1.343       .  A
C1           C38   1.456       .  S
C1          C544   1.449   1_554  S
N2           N19   1.312       .  A
N2           N24   1.314       .  A
N2          Co39   2.038       .  S
C3           N28   1.344       .  A
C3           C41   1.466       .  S
C3           H48   1.080       .  S
H4           C45   1.082       .  S
C5           N29   1.342       .  A
C5            C9   1.470       .  S
C5           H34   1.080       .  S
Co6          N24   2.031       .  S
Co6          N14   2.111       .  S
Co6          N46   2.090       .  S
Co6          N22   2.080       .  S
Co6         Cl50   2.441       .  S
N7           C45   1.345       .  A
N7           N14   1.319       .  A
N7           Co8   2.086       .  S
Co8          N11   2.078       .  S
Co8          N28   2.098       .  S
Co8          N15   2.061       .  S
Co8         Cl50   2.441       .  S
C9           N47   1.350       .  A
C9          C589   1.505       .  S
N10          N17   1.319       .  A
N10          N40   1.329       .  A
N10         Co43   2.088       .  S
N11          N29   1.320       .  A
N11          N47   1.322       .  A
N12          C41   1.354       .  A
N12          N22   1.328       .  A
H13          C38   1.081       .  S
N14          N35   1.331       .  A
N15          N33   1.318       .  A
N15          N20   1.316       .  A
C16          N20   1.345       .  A
C16          C44   1.454       .  S
C16         C558   1.441       .  S
N17          C32   1.341       .  A
N17         Co39   2.091       .  S
C18          N46   1.344       .  A
C18          C21   1.471       .  S
C18          H52   1.079       .  S
C21          N42   1.352       .  A
C21         C628   1.514       .  S
N22          N28   1.316       .  A
N23          C49   1.344       .  A
N23          N25   1.317       .  A
N23         Co39   2.076       .  S
N24          C38   1.325       .  A
N25          N53   1.322       .  A
N25         Co43   2.086       .  S
H26          C49   1.082       .  S
H27          C44   1.081       .  S
N29         Co43   2.077       .  S
N30          N42   1.326       .  A
N30          N46   1.325       .  A
N30         Co39   2.095       .  S
C31          N35   1.355       .  A
C31          C45   1.467       .  S
C31         C614   1.504       .  S
C32          C51   1.458       .  S
C32          H36   1.081       .  S
N33          C44   1.333       .  A
N33         Co43   2.064       .  S
C37          N53   1.347       .  A
C37          C49   1.466       .  S
C37         C603   1.486       .  S
Co39        Cl50   2.441       .  S
N40          C51   1.355       .  A
C41         C575   1.503       .  S
Co43        Cl50   2.441       .  S
C51         C645   1.489       .  S
C54          N72   1.347       .  A
C54          C91   1.477       .  S
C54         C505   1.501       .  S
N55          N72   1.325       .  A
N55          N77   1.322       .  A
N55         Co92   2.106       .  S
C56          N81   1.329       .  A
C56          C94   1.452       .  S
C56         H101   1.077       .  S
H57          C98   1.078       .  S
C58          N82   1.339       .  A
C58          C62   1.454       .  S
C58          H87   1.080       .  S
Co59         N77   2.105       .  S
Co59         N67   2.086       .  S
Co59         N99   2.087       .  S
Co59         N75   2.085       .  S
Co59       Cl103   2.457       .  S
N60          C98   1.342       .  A
N60          N67   1.322       .  A
N60         Co61   2.069       .  S
Co61         N64   2.104       .  S
Co61         N81   2.071       .  S
Co61         N68   2.103       .  S
Co61       Cl103   2.442       .  S
C62         N100   1.360       .  A
C62         C530   1.497       .  S
N63          N70   1.316       .  A
N63          N93   1.316       .  A
N63         Co96   2.051       .  S
N64          N82   1.320       .  A
N64         N100   1.334       .  A
N65          C94   1.349       .  A
N65          N75   1.321       .  A
H66          C91   1.080       .  S
N67          N88   1.326       .  A
N68          N86   1.315       .  A
N68          N73   1.327       .  A
C69          N73   1.348       .  A
C69          C97   1.470       .  S
C69         C491   1.493       .  S
N70          C85   1.332       .  A
N70         Co92   2.060       .  S
C71          N99   1.336       .  A
C71          C74   1.462       .  S
C71         H105   1.081       .  S
C74          N95   1.364       .  A
C74         C463   1.509       .  S
N75          N81   1.323       .  A
N76         C102   1.339       .  A
N76          N78   1.326       .  A
N76         Co92   2.078       .  S
N77          C91   1.352       .  A
N78         N106   1.323       .  A
N78         Co96   2.085       .  S
H79         C102   1.081       .  S
H80          C97   1.078       .  S
N82         Co96   2.099       .  S
N83          N95   1.335       .  A
N83          N99   1.313       .  A
N83         Co92   2.102       .  S
C84          N88   1.350       .  A
C84          C98   1.457       .  S
C84         C474   1.495       .  S
C85         C104   1.450       .  S
C85          H89   1.078       .  S
N86          C97   1.349       .  A
N86         Co96   2.087       .  S
C90         N106   1.347       .  A
C90         C102   1.461       .  S
C90         C516   1.497       .  S
Co92       Cl103   2.434       .  S
N93         C104   1.342       .  A
C94         C547   1.473       .  S
Co96       Cl103   2.451       .  S
C104        C561   1.439       .  S
C107        N125   1.349       .  A
C107        C144   1.474       .  S
C107        C533   1.503       .  S
N108        N125   1.327       .  A
N108        N130   1.319       .  A
N108       Co145   2.103       .  S
C109        N134   1.325       .  A
C109        C147   1.438       .  S
C109        H154   1.078       .  S
H110        C151   1.081       .  S
C111        N135   1.342       .  A
C111        C115   1.458       .  S
C111        H140   1.081       .  S
Co112       N130   2.101       .  S
Co112       N120   2.089       .  S
Co112       N152   2.105       .  S
Co112       N128   2.072       .  S
Co112      Cl156   2.451       .  S
N113        C151   1.345       .  A
N113        N120   1.325       .  A
N113       Co114   2.089       .  S
Co114       N117   2.103       .  S
Co114       N134   2.046       .  S
Co114       N121   2.109       .  S
Co114      Cl156   2.444       .  S
C115        N153   1.359       .  A
C115        C502   1.499       .  S
N116        N123   1.316       .  A
N116        N146   1.313       .  A
N116       Co149   2.043       .  S
N117        N135   1.319       .  A
N117        N153   1.332       .  A
N118        C147   1.345       .  A
N118        N128   1.319       .  A
H119        C144   1.080       .  S
N120        N141   1.326       .  A
N121        N139   1.317       .  A
N121        N126   1.327       .  A
C122        N126   1.352       .  A
C122        C150   1.465       .  S
C122        C421   1.493       .  S
N123        C138   1.332       .  A
N123       Co145   2.066       .  S
C124        N152   1.345       .  A
C124        C127   1.459       .  S
C124        H158   1.081       .  S
C127        N148   1.357       .  A
C127        C435   1.495       .  S
N128        N134   1.321       .  A
N129        C155   1.342       .  A
N129        N131   1.322       .  A
N129       Co145   2.084       .  S
N130        C144   1.351       .  A
N131        N159   1.322       .  A
N131       Co149   2.083       .  S
H132        C155   1.079       .  S
H133        C150   1.082       .  S
N135       Co149   2.100       .  S
N136        N148   1.333       .  A
N136        N152   1.318       .  A
N136       Co145   2.097       .  S
C137        N141   1.349       .  A
C137        C151   1.465       .  S
C137        C449   1.496       .  S
C138        C157   1.458       .  S
C138        H142   1.079       .  S
N139        C150   1.343       .  A
N139       Co149   2.068       .  S
C143        N159   1.351       .  A
C143        C155   1.467       .  S
C143        C519   1.500       .  S
Co145      Cl156   2.440       .  S
N146        C157   1.343       .  A
C147        C407   1.434       .  S
Co149      Cl156   2.452       .  S
C157        C390   1.454       .  S
C160        N178   1.352       .  A
C160        C197   1.467       .  S
C160        C642   1.497       .  S
N161        N178   1.327       .  A
N161        N183   1.319       .  A
N161       Co198   2.107       .  S
C162        N187   1.332       .  A
C162        C200   1.463       .  S
C162        H207   1.079       .  S
H163        C204   1.080       .  S
C164        N188   1.339       .  A
C164        C168   1.458       .  S
C164        H193   1.081       .  S
Co165       N183   2.085       .  S
Co165       N173   2.078       .  S
Co165       N205   2.084       .  S
Co165       N181   2.050       .  S
Co165      Cl209   2.448       .  S
N166        C204   1.348       .  A
N166        N173   1.327       .  A
N166       Co167   2.103       .  S
Co167       N170   2.118       .  S
Co167       N187   2.064       .  S
Co167       N174   2.105       .  S
Co167      Cl209   2.452       .  S
C168        N206   1.365       .  A
C168        C617   1.508       .  S
N169        N176   1.321       .  A
N169        N199   1.316       .  A
N169       Co202   2.049       .  S
N170        N188   1.318       .  A
N170        N206   1.335       .  A
N171        C200   1.343       .  A
N171        N181   1.313       .  A
H172        C197   1.082       .  S
N173        N194   1.326       .  A
N174        N192   1.319       .  A
N174        N179   1.326       .  A
C175        N179   1.349       .  A
C175        C203   1.472       .  S
C175        C348   1.497       .  S
N176        C191   1.330       .  A
N176       Co198   2.070       .  S
C177        N205   1.336       .  A
C177        C180   1.455       .  S
C177        H211   1.080       .  S
C180        N201   1.362       .  A
C180        C362   1.498       .  S
N181        N187   1.317       .  A
N182        C208   1.343       .  A
N182        N184   1.325       .  A
N182       Co198   2.080       .  S
N183        C197   1.346       .  A
N184        N212   1.328       .  A
N184       Co202   2.096       .  S
H185        C208   1.075       .  S
H186        C203   1.082       .  S
N188       Co202   2.093       .  S
N189        N201   1.334       .  A
N189        N205   1.318       .  A
N189       Co198   2.107       .  S
C190        N194   1.348       .  A
C190        C204   1.474       .  S
C190        C376   1.518       .  S
C191        C210   1.453   1_556  S
C191        H195   1.080       .  S
N192        C203   1.346       .  A
N192       Co202   2.087       .  S
C196        N212   1.354       .  A
C196        C208   1.467       .  S
C196        C631   1.520       .  S
Co198      Cl209   2.450       .  S
N199        C210   1.341   1_556  A
C200        C393   1.458       .  S
Co202      Cl209   2.453       .  S
C210        C404   1.440       .  S
C213        N231   1.341       .  A
C213        C250   1.482       .  S
C213        C488   1.498       .  S
N214        N231   1.323       .  A
N214        N236   1.316       .  A
N214      Co1559   2.077       .  S
C215       N1548   1.330   1_545  A
C215        C253   1.449   1_545  S
C215        H260   1.080       .  S
H216        C257   1.082       .  S
C217        N241   1.342       .  A
C217        C221   1.465       .  S
C217        H246   1.079       .  S
Co218       N236   2.119   1_554  S
Co218       N226   2.080       .  S
Co218       N234   2.076       .  S
Co218      N1566   2.096       .  S
Co218     Cl2224   2.435       .  S
N219        C257   1.344       .  A
N219        N226   1.327       .  A
N219       Co874   2.093       .  S
Co220       N223   2.104   1_554  S
Co220       N240   2.054   1_545  S
Co220       N873   2.093   1_545  S
Co220      N1535   2.119       .  S
Co220     Cl1570   2.453   1_545  S
C221        N259   1.362       .  A
C221        C460   1.509       .  S
N222        N883   1.322   1_545  A
N222       N1560   1.316       .  A
N222       Co255   2.054       .  S
N223        N241   1.317       .  A
N223        N259   1.335       .  A
N224        C907   1.348       .  A
N224       N1542   1.319       .  A
H225        C250   1.081       .  S
N226        N247   1.324       .  A
N227        N245   1.322       .  A
N227        N232   1.329       .  A
N227      Co1528   2.119   1_455  S
C228        N232   1.351       .  A
C228        C256   1.467       .  S
C228        C432   1.494       .  S
N229       C1552   1.330       .  A
N229        N876   1.322       .  A
N229       Co251   2.064       .  S
C230        N258   1.339   1_455  A
C230        C233   1.459       .  S
C230        H264   1.080   1_455  S
C233        N254   1.357       .  A
C233        C418   1.495       .  S
N234       N1532   1.319       .  A
N234        N894   1.318       .  A
N235        C261   1.342       .  A
N235        N237   1.322       .  A
N235       Co905   2.069   1_545  S
N236        C250   1.355       .  A
N237        N265   1.327       .  A
N237       Co255   2.095       .  S
H238        C261   1.077   1_565  S
H239        C256   1.082       .  S
N240       C1523   1.330   1_565  A
N240        N888   1.318       .  A
N241      Co1563   2.108       .  S
N242        N254   1.330       .  A
N242        N258   1.317   1_455  A
N242       Co251   2.083   1_554  S
C243        N247   1.347       .  A
C243        C257   1.462       .  S
C243        C446   1.492       .  S
C244       N1537   1.330       .  A
C244        C263   1.439       .  S
C244        H248   1.079       .  S
N245        C256   1.348       .  A
N245       Co255   2.093   1_554  S
C249        N265   1.352       .  A
C249        C261   1.458       .  S
C249        C477   1.499       .  S
Co251      N1522   2.077   1_455  S
Co251       N889   2.069       .  S
Co251      Cl916   2.453   1_456  S
N252        C917   1.342       .  A
N252       N1530   1.316       .  A
C253        N878   1.348       .  A
C253        C334   1.447       .  S
Co255      N1549   2.108   1_455  S
Co255      Cl262   2.447   1_446  S
N258      Co1526   2.096       .  S
Cl262     Co2180   2.435       .  S
Cl262     Co1528   2.453   1_565  S
Cl262      Co905   2.453   1_654  S
C263        N906   1.342       .  A
C263        C323   1.436       .  S
C266        N284   1.350       .  A
C266        C303   1.465       .  S
C266        C600   1.488       .  S
N267        N284   1.325       .  A
N267        N289   1.320       .  A
N267      Co1612   2.101       .  S
C268       N1601   1.328   1_545  A
C268        C306   1.447   1_545  S
C268        H313   1.081       .  S
H269        C310   1.081       .  S
C270        N294   1.341       .  A
C270        C274   1.460       .  S
C270        H299   1.080       .  S
Co271       N289   2.081       .  S
Co271       N279   2.103       .  S
Co271       N287   2.034       .  S
Co271      N1619   2.109       .  S
Co271      Cl969   2.455       .  S
N272        C310   1.343       .  A
N272        N279   1.326       .  A
N272       Co927   2.083       .  S
Co273       N276   2.100       .  S
Co273       N293   2.057   1_545  S
Co273       N926   2.083   1_545  S
Co273      N1588   2.095       .  S
Co273      Cl315   2.439   1_545  S
C274        N312   1.360       .  A
C274        C572   1.503       .  S
N275        N936   1.318   1_545  A
N275       N1613   1.317       .  A
N275       Co308   2.057       .  S
N276        N294   1.318       .  A
N276        N312   1.330       .  A
N277        C960   1.337       .  A
N277       N1595   1.312       .  A
H278        C303   1.082       .  S
N279        N300   1.331       .  A
N280        N298   1.318       .  A
N280        N285   1.325       .  A
N280      Co1581   2.095   1_455  S
C281        N285   1.348       .  A
C281        C309   1.475       .  S
C281        C365   1.501       .  S
N282       C1605   1.331       .  A
N282        N929   1.318       .  A
N282       Co304   2.066       .  S
C283        N311   1.344       .  A
C283        C286   1.464       .  S
C283        H317   1.081   1_455  S
C286        N307   1.357       .  A
C286        C351   1.502       .  S
N287       N1585   1.312       .  A
N287        N947   1.320       .  A
N288        C314   1.341       .  A
N288        N290   1.323       .  A
N288       Co958   2.081   1_545  S
N289        C303   1.344       .  A
N290        N318   1.324       .  A
N290       Co308   2.088       .  S
H291        C314   1.079   1_565  S
H292        C309   1.082       .  S
N293       C1576   1.328   1_565  A
N293        N941   1.320       .  A
N294      Co1616   2.093       .  S
N295        N307   1.332       .  A
N295        N311   1.318       .  A
N295       Co304   2.089       .  S
C296        N300   1.355       .  A
C296        C310   1.465       .  S
C296        C379   1.515       .  S
C297       N1590   1.331       .  A
C297        C316   1.454       .  S
C297        H301   1.077       .  S
N298        C309   1.351       .  A
N298       Co308   2.101       .  S
C302        N318   1.352       .  A
C302        C314   1.468       .  S
C302        C586   1.510       .  S
Co304      N1575   2.101   1_455  S
Co304       N942   2.081       .  S
Co304     Cl2277   2.439   1_455  S
N305        C970   1.345       .  A
N305       N1583   1.317       .  A
C306        N931   1.337       .  A
C306        C320   1.425       .  S
Co308      N1602   2.093   1_455  S
Co308     Cl1623   2.454   1_445  S
N311      Co1579   2.109   1_455  S
Cl315      Co925   2.455       .  S
Cl315     Co2266   2.439       .  S
Cl315     Co1616   2.454   1_565  S
C316        N959   1.345       .  A
C316        C337   1.445       .  S
C319        H326   1.086       .  S
C319        C324   1.376       .  A
C319       C1628   1.382       .  A
C320       C1627   1.382       .  A
C320        C975   1.413   1_655  A
C321        C974   1.413   1_455  A
C321       C1630   1.390       .  A
C321        N328   1.437       .  S
C322        H327   1.081       .  S
C322        C323   1.386       .  A
C322       C1629   1.390       .  A
C323        C978   1.399       .  A
C324        C977   1.399       .  A
C324        N325   1.411   1_565  S
N325        O329   1.258       .  A
N325        O330   1.262   1_545  A
N328        O331   1.262       .  A
N328       O1640   1.259       .  A
O332       N1636   1.259       .  A
C333        H340   1.084       .  S
C333        C334   1.404   1_455  A
C333        C992   1.396   1_565  A
C334       C1643   1.412   1_565  A
C335       C1642   1.412   1_545  A
C335        C990   1.394       .  A
C335        N342   1.447   1_545  S
C336        H341   1.084       .  S
C336        C337   1.401       .  A
C336        C989   1.394       .  A
C337       C1646   1.409       .  A
C338        C987   1.396       .  A
C338       C1645   1.409       .  A
C338        N339   1.448       .  S
N339        O343   1.263       .  A
N339        O998   1.262       .  A
N342        O346   1.263   1_565  A
N342        O999   1.261       .  A
O344        N993   1.262       .  A
O345        N996   1.261       .  A
C347        H354   1.082       .  S
C347        C348   1.401       .  A
C347        C352   1.407       .  A
C348        C349   1.419       .  A
C349        C350   1.415       .  A
C349        N356   1.433       .  S
C350        H355   1.083       .  S
C350        C351   1.409       .  A
C351        C352   1.419       .  A
C352        N353   1.435       .  S
N353        O358   1.260       .  A
N353       O1665   1.263   1_455  A
N356        O359   1.261       .  A
N356        O360   1.262       .  A
O357       N1661   1.263       .  A
C361        H368   1.084       .  S
C361        C362   1.402       .  A
C361        C366   1.412       .  A
C362        C363   1.418       .  A
C363        C364   1.409       .  A
C363        N370   1.436       .  S
C364        H369   1.083       .  S
C364        C365   1.404       .  A
C365        C366   1.423       .  A
C366        N367   1.435       .  S
N367        O372   1.261       .  A
N367       O1679   1.262   1_455  A
N370        O373   1.263       .  A
N370        O374   1.262       .  A
O371       N1675   1.262       .  A
C375        H382   1.080       .  S
C375        C376   1.409       .  A
C375        C380   1.412       .  A
C376        C377   1.426       .  A
C377        C378   1.420       .  A
C377        N384   1.440       .  S
C378        H383   1.083       .  S
C378        C379   1.409       .  A
C379        C380   1.414       .  A
C380        N381   1.432       .  S
N381        O385   1.262       .  A
N381        O386   1.260       .  A
N384        O387   1.262       .  A
N384        O388   1.262       .  A
C389        H396   1.082       .  S
C389        C390   1.403       .  A
C389        C394   1.388       .  A
C390        C391   1.404       .  A
C391        C392   1.387       .  A
C391        N398   1.432       .  S
C392        H397   1.083       .  S
C392        C393   1.406       .  A
C393        C394   1.406       .  A
C394        N395   1.433       .  S
N395        O399   1.262       .  A
N395        O400   1.261       .  A
N398        O401   1.262       .  A
N398        O402   1.263       .  A
C403        H410   1.085       .  S
C403        C404   1.394       .  A
C403        C408   1.391       .  A
C404        C405   1.424       .  A
C405        C406   1.391       .  A
C405        N412   1.453       .  S
C406        H411   1.082       .  S
C406        C407   1.389       .  A
C407        C408   1.415       .  A
C408        N409   1.444       .  S
N409        O413   1.263       .  A
N409        O414   1.261       .  A
N412        O415   1.260   1_554  A
N412        O416   1.263       .  A
C417        H424   1.081       .  S
C417        C418   1.407       .  A
C417        C422   1.408       .  A
C418        C419   1.409       .  A
C419        C420   1.407       .  A
C419        N426   1.428       .  S
C420        H425   1.080       .  S
C420        C421   1.407       .  A
C421        C422   1.416       .  A
C422        N423   1.439       .  S
N423        O427   1.263       .  A
N423        O428   1.262       .  A
N426        O429   1.262       .  A
N426        O430   1.260       .  A
C431        H438   1.083       .  S
C431        C432   1.406       .  A
C431        C436   1.414       .  A
C432        C433   1.418       .  A
C433        C434   1.415       .  A
C433        N440   1.442       .  S
C434        H439   1.082       .  S
C434        C435   1.405       .  A
C435        C436   1.415       .  A
C436        N437   1.439       .  S
N437        O441   1.262       .  A
N437        O442   1.262       .  A
N440        O443   1.262       .  A
N440        O444   1.263       .  A
C445        H452   1.082       .  S
C445        C446   1.408       .  A
C445        C450   1.413       .  A
C446        C447   1.403       .  A
C447        C448   1.410       .  A
C447        N454   1.434       .  S
C448        H453   1.083       .  S
C448        C449   1.413       .  A
C449        C450   1.417       .  A
C450        N451   1.443       .  S
N451        O455   1.263       .  A
N451        O456   1.263       .  A
N454        O457   1.263       .  A
N454        O458   1.259       .  A
C459        H466   1.083       .  S
C459        C460   1.407       .  A
C459        C464   1.418       .  A
C460        C461   1.420       .  A
C461        C462   1.413       .  A
C461        N468   1.429       .  S
C462        H467   1.083       .  S
C462        C463   1.406       .  A
C463        C464   1.423       .  A
C464        N465   1.437       .  S
N465        O469   1.263   1_545  A
N465        O470   1.262   1_545  A
N468        O471   1.262       .  A
N468        O472   1.262       .  A
C473        H480   1.085       .  S
C473        C474   1.394       .  A
C473        C478   1.408       .  A
C474        C475   1.424       .  A
C475        C476   1.408       .  A
C475        N482   1.430       .  S
C476        H481   1.085       .  S
C476        C477   1.398       .  A
C477        C478   1.429       .  A
C478        N479   1.432       .  S
N479        O483   1.261   1_545  A
N479        O484   1.260   1_545  A
N482        O485   1.261       .  A
N482        O486   1.262       .  A
C487        H494   1.083       .  S
C487        C488   1.404       .  A
C487        C492   1.415       .  A
C488        C489   1.425       .  A
C489        C490   1.413       .  A
C489        N496   1.442       .  S
C490        H495   1.083       .  S
C490        C491   1.402       .  A
C491        C492   1.416       .  A
C492        N493   1.440       .  S
N493        O497   1.263       .  A
N493        O498   1.263       .  A
N496        O499   1.260       .  A
N496        O500   1.263       .  A
C501        H508   1.084       .  S
C501        C502   1.408       .  A
C501        C506   1.414       .  A
C502        C503   1.414       .  A
C503       C1158   1.410       .  A
C503        N510   1.434       .  S
C504        H509   1.082       .  S
C504        C505   1.408       .  A
C504       C1157   1.410   1_545  A
C505       C1160   1.417       .  A
C506       C1159   1.417       .  A
C506        N507   1.437       .  S
N507        O511   1.262       .  A
N507        O512   1.262       .  A
N510        O514   1.263       .  A
N510       O1167   1.262       .  A
O513       N1164   1.262       .  A
C515        H522   1.081       .  S
C515        C520   1.401       .  A
C515       C1824   1.401   1_455  A
C516        C517   1.422       .  A
C516       C1823   1.401       .  A
C517        C518   1.406       .  A
C517        N524   1.434       .  S
C518        H523   1.079       .  S
C518       C1827   1.402       .  A
C519        C520   1.419       .  A
C519       C1826   1.402   1_455  A
C520        N521   1.425       .  S
N521        O525   1.260       .  A
N521        O526   1.260       .  A
N524        O527   1.261       .  A
N524        O528   1.262       .  A
C529        H536   1.084       .  S
C529        C530   1.405       .  A
C529        C534   1.410       .  A
C530        C531   1.420       .  A
C531        C532   1.416       .  A
C531        N538   1.442       .  S
C532        H537   1.081       .  S
C532        C533   1.409       .  A
C533        C534   1.418       .  A
C534        N535   1.440       .  S
N535        O539   1.262       .  A
N535        O540   1.263       .  A
N538        O541   1.262       .  A
N538        O542   1.263       .  A
C543        H550   1.081       .  S
C543        C544   1.390       .  A
C543        C548   1.380       .  A
C544        C545   1.407       .  A
C545        C546   1.392       .  A
C545        N552   1.439       .  S
C546        H551   1.079       .  S
C546        C547   1.407       .  A
C547        C548   1.412       .  A
C548        N549   1.422       .  S
N549        O553   1.250       .  A
N549        O554   1.263       .  A
N552        O555   1.263       .  A
N552        O556   1.263       .  A
C557        H564   1.084       .  S
C557        C558   1.403       .  A
C557        C562   1.395       .  A
C558        C559   1.403       .  A
C559        C560   1.391       .  A
C559        N566   1.441       .  S
C560        H565   1.085       .  S
C560        C561   1.404       .  A
C561        C562   1.411       .  A
C562        N563   1.450       .  S
N563        O567   1.262       .  A
N563        O568   1.263       .  A
N566        O569   1.262       .  A
N566        O570   1.262       .  A
C571        H578   1.081       .  S
C571        C572   1.409       .  A
C571        C576   1.410       .  A
C572        C573   1.415       .  A
C573        C574   1.411       .  A
C573        N580   1.437       .  S
C574        H579   1.081       .  S
C574        C575   1.410       .  A
C575        C576   1.420       .  A
C576        N577   1.438       .  S
N577        O581   1.263       .  A
N577        O582   1.261       .  A
N580        O583   1.262       .  A
N580        O584   1.262       .  A
C585        H592   1.078       .  S
C585        C586   1.411       .  A
C585        C590   1.410       .  A
C586        C587   1.418       .  A
C587        C588   1.407       .  A
C587        N594   1.433       .  S
C588        H593   1.079       .  S
C588        C589   1.408       .  A
C589        C590   1.418       .  A
C590        N591   1.437       .  S
N591        O595   1.262   1_545  A
N591        O596   1.263       .  A
N594        O597   1.261       .  A
N594        O598   1.262       .  A
C599        H606   1.083       .  S
C599        C600   1.404       .  A
C599        C604   1.411       .  A
C600        C601   1.419       .  A
C601        C602   1.407       .  A
C601        N608   1.445       .  S
C602        H607   1.083       .  S
C602        C603   1.404       .  A
C603        C604   1.423       .  A
C604        N605   1.449       .  S
N605        O609   1.261       .  A
N605        O610   1.261       .  A
N608        O611   1.261       .  A
N608        O612   1.263       .  A
C613        H620   1.084       .  S
C613        C614   1.412       .  A
C613        C618   1.421   1_554  A
C614       C1269   1.420   1_545  A
C615        C616   1.411       .  A
C615       C1268   1.420       .  A
C615        N622   1.443       .  S
C616        H621   1.080       .  S
C616        C617   1.407   1_554  A
C617       C1272   1.419       .  A
C618       C1271   1.419   1_545  A
C618        N619   1.442       .  S
N619        O623   1.263       .  A
N619        O624   1.261       .  A
N622        O625   1.261       .  A
N622        O626   1.260       .  A
C627       H1942   1.079       .  S
C627        C628   1.406       .  A
C627       C1940   1.407   1_554  A
C628        C629   1.418       .  A
C629        C630   1.414   1_554  A
C629        N636   1.433       .  S
C630        H635   1.082       .  S
C630       C1939   1.411       .  A
C631        C632   1.420   1_455  A
C631       C1938   1.411       .  A
C632       C1935   1.407   1_556  A
C632        N633   1.424   1_655  S
N633        O637   1.263       .  A
N633        O638   1.259   1_455  A
H634       C1935   1.079       .  S
N636        O639   1.262       .  A
N636        O640   1.262       .  A
C641        H648   1.083       .  S
C641        C642   1.400       .  A
C641        C646   1.412       .  A
C642        C643   1.418   1_556  A
C643        C644   1.403       .  A
C643        N650   1.425       .  S
C644        H649   1.084       .  S
C644        C645   1.397       .  A
C645        C646   1.420   1_554  A
C646        N647   1.438       .  S
N647        O651   1.263   1_556  A
N647        O652   1.261       .  A
N650        O653   1.263       .  A
N650        O654   1.255       .  A
C655        N673   1.343       .  A
C655        C692   1.456       .  S
C655       C1198   1.449   1_554  S
N656        N673   1.312       .  A
N656        N678   1.314       .  A
N656       Co693   2.038       .  S
C657        N682   1.344       .  A
C657        C695   1.466       .  S
C657        H702   1.080       .  S
H658        C699   1.082       .  S
C659        N683   1.342       .  A
C659        C663   1.470       .  S
C659        H688   1.080       .  S
Co660       N678   2.031       .  S
Co660       N668   2.111       .  S
Co660       N700   2.090       .  S
Co660       N676   2.080       .  S
Co660      Cl704   2.441       .  S
N661        C699   1.345       .  A
N661        N668   1.319       .  A
N661       Co662   2.086       .  S
Co662       N665   2.078       .  S
Co662       N682   2.098       .  S
Co662       N669   2.061       .  S
Co662      Cl704   2.441       .  S
C663        N701   1.350       .  A
C663       C1243   1.505       .  S
N664        N671   1.319       .  A
N664        N694   1.329       .  A
N664       Co697   2.088       .  S
N665        N683   1.320       .  A
N665        N701   1.322       .  A
N666        C695   1.354       .  A
N666        N676   1.328       .  A
H667        C692   1.081       .  S
N668        N689   1.331       .  A
N669        N687   1.318       .  A
N669        N674   1.316       .  A
C670        N674   1.345       .  A
C670        C698   1.454       .  S
C670       C1212   1.441       .  S
N671        C686   1.341       .  A
N671       Co693   2.091       .  S
C672        N700   1.344       .  A
C672        C675   1.471       .  S
C672        H706   1.079       .  S
C675        N696   1.352       .  A
C675       C1282   1.514       .  S
N676        N682   1.316       .  A
N677        C703   1.344       .  A
N677        N679   1.317       .  A
N677       Co693   2.076       .  S
N678        C692   1.325       .  A
N679        N707   1.322       .  A
N679       Co697   2.086       .  S
H680        C703   1.082       .  S
H681        C698   1.081       .  S
N683       Co697   2.077       .  S
N684        N696   1.326       .  A
N684        N700   1.325       .  A
N684       Co693   2.095       .  S
C685        N689   1.355       .  A
C685        C699   1.467       .  S
C685       C1268   1.504       .  S
C686        C705   1.458       .  S
C686        H690   1.081       .  S
N687        C698   1.333       .  A
N687       Co697   2.064       .  S
C691        N707   1.347       .  A
C691        C703   1.466       .  S
C691       C1257   1.486       .  S
Co693      Cl704   2.441       .  S
N694        C705   1.355       .  A
C695       C1229   1.503       .  S
Co697      Cl704   2.441       .  S
C705       C1299   1.489       .  S
C708        N726   1.347       .  A
C708        C745   1.477       .  S
C708       C1159   1.501       .  S
N709        N726   1.325       .  A
N709        N731   1.322       .  A
N709       Co746   2.106       .  S
C710        N735   1.329       .  A
C710        C748   1.452       .  S
C710        H755   1.077       .  S
H711        C752   1.078       .  S
C712        N736   1.339       .  A
C712        C716   1.454       .  S
C712        H741   1.080       .  S
Co713       N731   2.105       .  S
Co713       N721   2.086       .  S
Co713       N753   2.087       .  S
Co713       N729   2.085       .  S
Co713      Cl757   2.457       .  S
N714        C752   1.342       .  A
N714        N721   1.322       .  A
N714       Co715   2.069       .  S
Co715       N718   2.104       .  S
Co715       N735   2.071       .  S
Co715       N722   2.103       .  S
Co715      Cl757   2.442       .  S
C716        N754   1.360       .  A
C716       C1184   1.497       .  S
N717        N724   1.316       .  A
N717        N747   1.316       .  A
N717       Co750   2.051       .  S
N718        N736   1.320       .  A
N718        N754   1.334       .  A
N719        C748   1.349       .  A
N719        N729   1.321       .  A
H720        C745   1.080       .  S
N721        N742   1.326       .  A
N722        N740   1.315       .  A
N722        N727   1.327       .  A
C723        N727   1.348       .  A
C723        C751   1.470       .  S
C723       C1145   1.493       .  S
N724        C739   1.332       .  A
N724       Co746   2.060       .  S
C725        N753   1.336       .  A
C725        C728   1.462       .  S
C725        H759   1.081       .  S
C728        N749   1.364       .  A
C728       C1117   1.509       .  S
N729        N735   1.323       .  A
N730        C756   1.339       .  A
N730        N732   1.326       .  A
N730       Co746   2.078       .  S
N731        C745   1.352       .  A
N732        N760   1.323       .  A
N732       Co750   2.085       .  S
H733        C756   1.081       .  S
H734        C751   1.078       .  S
N736       Co750   2.099       .  S
N737        N749   1.335       .  A
N737        N753   1.313       .  A
N737       Co746   2.102       .  S
C738        N742   1.350       .  A
C738        C752   1.457       .  S
C738       C1128   1.495       .  S
C739        C758   1.450       .  S
C739        H743   1.078       .  S
N740        C751   1.349       .  A
N740       Co750   2.087       .  S
C744        N760   1.347       .  A
C744        C756   1.461       .  S
C744       C1170   1.497       .  S
Co746      Cl757   2.434       .  S
N747        C758   1.342       .  A
C748       C1201   1.473       .  S
Co750      Cl757   2.451       .  S
C758       C1215   1.439       .  S
C761        N779   1.349       .  A
C761        C798   1.474       .  S
C761       C1187   1.503       .  S
N762        N779   1.327       .  A
N762        N784   1.319       .  A
N762       Co799   2.103       .  S
C763        N788   1.325       .  A
C763        C801   1.438       .  S
C763        H808   1.078       .  S
H764        C805   1.081       .  S
C765        N789   1.342       .  A
C765        C769   1.458       .  S
C765        H794   1.081       .  S
Co766       N784   2.101       .  S
Co766       N774   2.089       .  S
Co766       N806   2.105       .  S
Co766       N782   2.072       .  S
Co766      Cl810   2.451       .  S
N767        C805   1.345       .  A
N767        N774   1.325       .  A
N767       Co768   2.089       .  S
Co768       N771   2.103       .  S
Co768       N788   2.046       .  S
Co768       N775   2.109       .  S
Co768      Cl810   2.444       .  S
C769        N807   1.359       .  A
C769       C1156   1.499       .  S
N770        N777   1.316       .  A
N770        N800   1.313       .  A
N770       Co803   2.043       .  S
N771        N789   1.319       .  A
N771        N807   1.332       .  A
N772        C801   1.345       .  A
N772        N782   1.319       .  A
H773        C798   1.080       .  S
N774        N795   1.326       .  A
N775        N793   1.317       .  A
N775        N780   1.327       .  A
C776        N780   1.352       .  A
C776        C804   1.465       .  S
C776       C1075   1.493       .  S
N777        C792   1.332       .  A
N777       Co799   2.066       .  S
C778        N806   1.345       .  A
C778        C781   1.459       .  S
C778        H812   1.081       .  S
C781        N802   1.357       .  A
C781       C1089   1.495       .  S
N782        N788   1.321       .  A
N783        C809   1.342       .  A
N783        N785   1.322       .  A
N783       Co799   2.084       .  S
N784        C798   1.351       .  A
N785        N813   1.322       .  A
N785       Co803   2.083       .  S
H786        C809   1.079       .  S
H787        C804   1.082       .  S
N789       Co803   2.100       .  S
N790        N802   1.333       .  A
N790        N806   1.318       .  A
N790       Co799   2.097       .  S
C791        N795   1.349       .  A
C791        C805   1.465       .  S
C791       C1103   1.496       .  S
C792        C811   1.458       .  S
C792        H796   1.079       .  S
N793        C804   1.343       .  A
N793       Co803   2.068       .  S
C797        N813   1.351       .  A
C797        C809   1.467       .  S
C797       C1173   1.500       .  S
Co799      Cl810   2.440       .  S
N800        C811   1.343       .  A
C801       C1061   1.434       .  S
Co803      Cl810   2.452       .  S
C811       C1044   1.454       .  S
C814        N832   1.352       .  A
C814        C851   1.467       .  S
C814       C1296   1.497       .  S
N815        N832   1.327       .  A
N815        N837   1.319       .  A
N815       Co852   2.107       .  S
C816        N841   1.332       .  A
C816        C854   1.463       .  S
C816        H861   1.079       .  S
H817        C858   1.080       .  S
C818        N842   1.339       .  A
C818        C822   1.458       .  S
C818        H847   1.081       .  S
Co819       N837   2.085       .  S
Co819       N827   2.078       .  S
Co819       N859   2.084       .  S
Co819       N835   2.050       .  S
Co819      Cl863   2.448       .  S
N820        C858   1.348       .  A
N820        N827   1.327       .  A
N820       Co821   2.103       .  S
Co821       N824   2.118       .  S
Co821       N841   2.064       .  S
Co821       N828   2.105       .  S
Co821      Cl863   2.452       .  S
C822        N860   1.365       .  A
C822       C1271   1.508       .  S
N823        N830   1.321       .  A
N823        N853   1.316       .  A
N823       Co856   2.049       .  S
N824        N842   1.318       .  A
N824        N860   1.335       .  A
N825        C854   1.343       .  A
N825        N835   1.313       .  A
H826        C851   1.082       .  S
N827        N848   1.326       .  A
N828        N846   1.319       .  A
N828        N833   1.326       .  A
C829        N833   1.349       .  A
C829        C857   1.472       .  S
C829       C1002   1.497       .  S
N830        C845   1.330       .  A
N830       Co852   2.070       .  S
C831        N859   1.336       .  A
C831        C834   1.455       .  S
C831        H865   1.080       .  S
C834        N855   1.362       .  A
C834       C1016   1.498       .  S
N835        N841   1.317       .  A
N836        C862   1.343       .  A
N836        N838   1.325       .  A
N836       Co852   2.080       .  S
N837        C851   1.346       .  A
N838        N866   1.328       .  A
N838       Co856   2.096       .  S
H839        C862   1.075       .  S
H840        C857   1.082       .  S
N842       Co856   2.093       .  S
N843        N855   1.334       .  A
N843        N859   1.318       .  A
N843       Co852   2.107       .  S
C844        N848   1.348       .  A
C844        C858   1.474       .  S
C844       C1030   1.518       .  S
C845        C864   1.453   1_556  S
C845        H849   1.080       .  S
N846        C857   1.346       .  A
N846       Co856   2.087       .  S
C850        N866   1.354       .  A
C850        C862   1.467       .  S
C850       C1285   1.520       .  S
Co852      Cl863   2.450       .  S
N853        C864   1.341   1_556  A
C854       C1047   1.458       .  S
Co856      Cl863   2.453       .  S
C864       C1058   1.440       .  S
C867        N885   1.341       .  A
C867        C904   1.482       .  S
C867       C1142   1.498       .  S
N868        N885   1.323       .  A
N868        N890   1.316       .  A
N868      Co2213   2.077       .  S
C869       N2202   1.330       .  A
C869        C907   1.449       .  S
C869        H914   1.080       .  S
H870        C911   1.082       .  S
C871        N895   1.342       .  A
C871        C875   1.465       .  S
C871        H900   1.079       .  S
Co872       N890   2.119   1_554  S
Co872       N880   2.080       .  S
Co872      N2220   2.096       .  S
Co872       N888   2.076       .  S
Co872     Cl1570   2.435       .  S
N873        C911   1.344       .  A
N873        N880   1.327       .  A
Co874       N877   2.104   1_554  S
Co874       N894   2.054       .  S
Co874      N2189   2.119       .  S
Co874     Cl2224   2.453       .  S
C875        N913   1.362       .  A
C875       C1114   1.509       .  S
N876       N2214   1.316       .  A
N876       Co909   2.054       .  S
N877        N895   1.317       .  A
N877        N913   1.335       .  A
N878       N2196   1.319       .  A
H879        C904   1.081       .  S
N880        N901   1.324       .  A
N881        N899   1.322       .  A
N881        N886   1.329       .  A
N881      Co2182   2.119   1_455  S
C882        N886   1.351       .  A
C882        C910   1.467       .  S
C882       C1086   1.494       .  S
N883       C2206   1.330       .  A
N883       Co905   2.064       .  S
C884        N912   1.339   1_455  A
C884        C887   1.459       .  S
C884        H918   1.080   1_455  S
C887        N908   1.357       .  A
C887       C1072   1.495       .  S
N888       N2186   1.319       .  A
N889        C915   1.342       .  A
N889        N891   1.322       .  A
N890        C904   1.355       .  A
N891        N919   1.327       .  A
N891       Co909   2.095       .  S
H892        C915   1.077       .  S
H893        C910   1.082       .  S
N894       C2177   1.330       .  A
N895      Co2217   2.108       .  S
N896        N908   1.330       .  A
N896        N912   1.317   1_455  A
N896       Co905   2.083   1_554  S
C897        N901   1.347       .  A
C897        C911   1.462       .  S
C897       C1100   1.492       .  S
C898       N2191   1.330       .  A
C898        C917   1.439   1_565  S
C898        H902   1.079       .  S
N899        C910   1.348       .  A
N899       Co909   2.093   1_554  S
C903        N919   1.352       .  A
C903        C915   1.458       .  S
C903       C1131   1.499       .  S
Co905      N2176   2.077   1_455  S
N906       N2184   1.316       .  A
C907        C988   1.447       .  S
Co909      N2203   2.108   1_455  S
Co909      Cl916   2.447   1_456  S
N912      Co2180   2.096       .  S
Cl916     Co1526   2.435       .  S
Cl916     Co2182   2.453       .  S
C917        C977   1.436   1_545  S
C920        N938   1.350       .  A
C920        C957   1.465       .  S
C920       C1254   1.488       .  S
N921        N938   1.325       .  A
N921        N943   1.320       .  A
N921      Co2266   2.101       .  S
C922       N2255   1.328       .  A
C922        C960   1.447       .  S
C922        H967   1.081       .  S
H923        C964   1.081   1_545  S
C924        N948   1.341       .  A
C924        C928   1.460       .  S
C924        H953   1.080       .  S
Co925       N943   2.081       .  S
Co925       N933   2.103       .  S
Co925      N2273   2.109       .  S
Co925       N941   2.034       .  S
N926        C964   1.343       .  A
N926        N933   1.326       .  A
Co927       N930   2.100       .  S
Co927       N947   2.057       .  S
Co927      N2242   2.095       .  S
Co927      Cl969   2.439       .  S
C928        N966   1.360       .  A
C928       C1226   1.503       .  S
N929       N2267   1.317       .  A
N929       Co962   2.057       .  S
N930        N948   1.318       .  A
N930        N966   1.330       .  A
N931       N2249   1.312       .  A
H932        C957   1.082       .  S
N933        N954   1.331       .  A
N934        N952   1.318       .  A
N934        N939   1.325       .  A
N934      Co2235   2.095   1_455  S
C935        N939   1.348       .  A
C935        C963   1.475       .  S
C935       C1019   1.501       .  S
N936       C2259   1.331       .  A
N936       Co958   2.066       .  S
C937        N965   1.344       .  A
C937        C940   1.464       .  S
C937        H971   1.081   1_455  S
C940        N961   1.357       .  A
C940       C1005   1.502       .  S
N941       N2239   1.312       .  A
N942        C968   1.341       .  A
N942        N944   1.323       .  A
N943        C957   1.344       .  A
N944        N972   1.324       .  A
N944       Co962   2.088       .  S
H945        C968   1.079       .  S
H946        C963   1.082       .  S
N947       C2230   1.328       .  A
N948      Co2270   2.093       .  S
N949        N961   1.332       .  A
N949        N965   1.318       .  A
N949       Co958   2.089       .  S
C950        N954   1.355       .  A
C950        C964   1.465       .  S
C950       C1033   1.515       .  S
C951       N2244   1.331       .  A
C951        C970   1.454   1_565  S
C951        H955   1.077       .  S
N952        C963   1.351       .  A
N952       Co962   2.101       .  S
C956        N972   1.352       .  A
C956        C968   1.468       .  S
C956       C1240   1.510       .  S
Co958      N2229   2.101   1_455  S
Co958     Cl1623   2.439   1_455  S
N959       N2237   1.317       .  A
C960        C974   1.425       .  S
Co962      N2256   2.093   1_455  S
Co962     Cl2277   2.454   1_455  S
N965      Co2233   2.109   1_455  S
Cl969     Co1612   2.439       .  S
Cl969     Co2270   2.454       .  S
C970        C991   1.445       .  S
C973        H980   1.086       .  S
C973       C2282   1.382       .  A
C973        C978   1.376       .  A
C974       C2281   1.382       .  A
C975       C2284   1.390       .  A
C975        N982   1.437       .  S
C976        H981   1.081       .  S
C976       C2283   1.390       .  A
C976        C977   1.386       .  A
C978        N979   1.411       .  S
N979        O983   1.258       .  A
N979        O984   1.262       .  A
N982        O985   1.262       .  A
N982       O2294   1.259       .  A
O986       N2290   1.259       .  A
C987        H994   1.084       .  S
C987        C988   1.404   1_455  A
C988       C2297   1.412       .  A
C989       C2296   1.412       .  A
C989        N996   1.447       .  S
C990        H995   1.084       .  S
C990        C991   1.401       .  A
C991       C2300   1.409       .  A
C992       C2299   1.409       .  A
C992        N993   1.448       .  S
N993        O997   1.263       .  A
N996       O1000   1.263       .  A
C1001      H1008   1.082       .  S
C1001      C1002   1.401       .  A
C1001      C1006   1.407       .  A
C1002      C1003   1.419       .  A
C1003      C1004   1.415       .  A
C1003      N1010   1.433       .  S
C1004      H1009   1.083       .  S
C1004      C1005   1.409       .  A
C1005      C1006   1.419       .  A
C1006      N1007   1.435       .  S
N1007      O2319   1.263   1_455  A
N1007      O1012   1.260       .  A
N1010      O1013   1.261       .  A
N1010      O1014   1.262   1_565  A
O1011      N2315   1.263       .  A
C1015      H1022   1.084       .  S
C1015      C1016   1.402       .  A
C1015      C1020   1.412       .  A
C1016      C1017   1.418       .  A
C1017      C1018   1.409       .  A
C1017      N1024   1.436       .  S
C1018      H1023   1.083       .  S
C1018      C1019   1.404       .  A
C1019      C1020   1.423       .  A
C1020      N1021   1.435       .  S
N1021      O2333   1.262   1_455  A
N1021      O1026   1.261       .  A
N1024      O1027   1.263       .  A
N1024      O1028   1.262       .  A
O1025      N2329   1.262       .  A
C1029      H1036   1.080       .  S
C1029      C1030   1.409       .  A
C1029      C1034   1.412       .  A
C1030      C1031   1.426       .  A
C1031      C1032   1.420       .  A
C1031      N1038   1.440       .  S
C1032      H1037   1.083       .  S
C1032      C1033   1.409       .  A
C1033      C1034   1.414       .  A
C1034      N1035   1.432       .  S
N1035      O1039   1.262       .  A
N1035      O1040   1.260   1_565  A
N1038      O1041   1.262       .  A
N1038      O1042   1.262       .  A
C1043      H1050   1.082       .  S
C1043      C1044   1.403       .  A
C1043      C1048   1.388       .  A
C1044      C1045   1.404       .  A
C1045      C1046   1.387       .  A
C1045      N1052   1.432       .  S
C1046      H1051   1.083       .  S
C1046      C1047   1.406       .  A
C1047      C1048   1.406       .  A
C1048      N1049   1.433       .  S
N1049      O1053   1.262       .  A
N1049      O1054   1.261       .  A
N1052      O1055   1.262       .  A
N1052      O1056   1.263       .  A
C1057      H1064   1.085       .  S
C1057      C1058   1.394       .  A
C1057      C1062   1.391       .  A
C1058      C1059   1.424       .  A
C1059      C1060   1.391       .  A
C1059      N1066   1.453       .  S
C1060      H1065   1.082       .  S
C1060      C1061   1.389       .  A
C1061      C1062   1.415       .  A
C1062      N1063   1.444       .  S
N1063      O1067   1.263       .  A
N1063      O1068   1.261       .  A
N1066      O1069   1.260   1_554  A
N1066      O1070   1.263       .  A
C1071      H1078   1.081       .  S
C1071      C1072   1.407       .  A
C1071      C1076   1.408       .  A
C1072      C1073   1.409       .  A
C1073      C1074   1.407       .  A
C1073      N1080   1.428       .  S
C1074      H1079   1.080       .  S
C1074      C1075   1.407       .  A
C1075      C1076   1.416       .  A
C1076      N1077   1.439       .  S
N1077      O1081   1.263       .  A
N1077      O1082   1.262       .  A
N1080      O1083   1.262       .  A
N1080      O1084   1.260       .  A
C1085      H1092   1.083       .  S
C1085      C1086   1.406       .  A
C1085      C1090   1.414       .  A
C1086      C1087   1.418       .  A
C1087      C1088   1.415       .  A
C1087      N1094   1.442       .  S
C1088      H1093   1.082       .  S
C1088      C1089   1.405       .  A
C1089      C1090   1.415       .  A
C1090      N1091   1.439       .  S
N1091      O1095   1.262       .  A
N1091      O1096   1.262       .  A
N1094      O1097   1.262       .  A
N1094      O1098   1.263       .  A
C1099      H1106   1.082       .  S
C1099      C1100   1.408       .  A
C1099      C1104   1.413       .  A
C1100      C1101   1.403       .  A
C1101      C1102   1.410       .  A
C1101      N1108   1.434       .  S
C1102      H1107   1.083       .  S
C1102      C1103   1.413       .  A
C1103      C1104   1.417       .  A
C1104      N1105   1.443       .  S
N1105      O1109   1.263       .  A
N1105      O1110   1.263       .  A
N1108      O1111   1.263       .  A
N1108      O1112   1.259       .  A
C1113      H1120   1.083       .  S
C1113      C1114   1.407       .  A
C1113      C1118   1.418       .  A
C1114      C1115   1.420       .  A
C1115      C1116   1.413       .  A
C1115      N1122   1.429       .  S
C1116      H1121   1.083       .  S
C1116      C1117   1.406       .  A
C1117      C1118   1.423       .  A
C1118      N1119   1.437       .  S
N1119      O1123   1.263       .  A
N1119      O1124   1.262       .  A
N1122      O1125   1.262       .  A
N1122      O1126   1.262       .  A
C1127      H1134   1.085       .  S
C1127      C1128   1.394       .  A
C1127      C1132   1.408       .  A
C1128      C1129   1.424       .  A
C1129      C1130   1.408       .  A
C1129      N1136   1.430       .  S
C1130      H1135   1.085       .  S
C1130      C1131   1.398       .  A
C1131      C1132   1.429       .  A
C1132      N1133   1.432       .  S
N1133      O1137   1.261       .  A
N1133      O1138   1.260       .  A
N1136      O1139   1.261       .  A
N1136      O1140   1.262       .  A
C1141      H1148   1.083       .  S
C1141      C1142   1.404       .  A
C1141      C1146   1.415       .  A
C1142      C1143   1.425       .  A
C1143      C1144   1.413       .  A
C1143      N1150   1.442       .  S
C1144      H1149   1.083       .  S
C1144      C1145   1.402       .  A
C1145      C1146   1.416       .  A
C1146      N1147   1.440       .  S
N1147      O1151   1.263       .  A
N1147      O1152   1.263       .  A
N1150      O1153   1.260       .  A
N1150      O1154   1.263       .  A
C1155      H1162   1.084       .  S
C1155      C1156   1.408       .  A
C1155      C1160   1.414   1_565  A
C1156      C1157   1.414       .  A
C1157      N1164   1.434       .  S
C1158      H1163   1.082       .  S
C1158      C1159   1.408       .  A
C1160      N1161   1.437       .  S
N1161      O1165   1.262       .  A
N1161      O1166   1.262       .  A
N1164      O1168   1.263       .  A
C1169      H1176   1.081       .  S
C1169      C2478   1.401   1_455  A
C1169      C1174   1.401       .  A
C1170      C2477   1.401       .  A
C1170      C1171   1.422       .  A
C1171      C1172   1.406       .  A
C1171      N1178   1.434       .  S
C1172      H1177   1.079       .  S
C1172      C2481   1.402       .  A
C1173      C2480   1.402   1_455  A
C1173      C1174   1.419       .  A
C1174      N1175   1.425       .  S
N1175      O1179   1.260       .  A
N1175      O1180   1.260       .  A
N1178      O1181   1.261       .  A
N1178      O1182   1.262       .  A
C1183      H1190   1.084       .  S
C1183      C1184   1.405       .  A
C1183      C1188   1.410       .  A
C1184      C1185   1.420       .  A
C1185      C1186   1.416       .  A
C1185      N1192   1.442       .  S
C1186      H1191   1.081       .  S
C1186      C1187   1.409       .  A
C1187      C1188   1.418       .  A
C1188      N1189   1.440       .  S
N1189      O1193   1.262       .  A
N1189      O1194   1.263       .  A
N1192      O1195   1.262       .  A
N1192      O1196   1.263       .  A
C1197      H1204   1.081       .  S
C1197      C1198   1.390       .  A
C1197      C1202   1.380       .  A
C1198      C1199   1.407       .  A
C1199      C1200   1.392       .  A
C1199      N1206   1.439       .  S
C1200      H1205   1.079       .  S
C1200      C1201   1.407       .  A
C1201      C1202   1.412       .  A
C1202      N1203   1.422       .  S
N1203      O1207   1.250       .  A
N1203      O1208   1.263       .  A
N1206      O1209   1.263       .  A
N1206      O1210   1.263       .  A
C1211      H1218   1.084       .  S
C1211      C1212   1.403       .  A
C1211      C1216   1.395       .  A
C1212      C1213   1.403       .  A
C1213      C1214   1.391       .  A
C1213      N1220   1.441       .  S
C1214      H1219   1.085       .  S
C1214      C1215   1.404       .  A
C1215      C1216   1.411       .  A
C1216      N1217   1.450       .  S
N1217      O1221   1.262       .  A
N1217      O1222   1.263       .  A
N1220      O1223   1.262       .  A
N1220      O1224   1.262       .  A
C1225      H1232   1.081       .  S
C1225      C1226   1.409       .  A
C1225      C1230   1.410       .  A
C1226      C1227   1.415       .  A
C1227      C1228   1.411       .  A
C1227      N1234   1.437       .  S
C1228      H1233   1.081       .  S
C1228      C1229   1.410       .  A
C1229      C1230   1.420       .  A
C1230      N1231   1.438       .  S
N1231      O1235   1.263       .  A
N1231      O1236   1.261       .  A
N1234      O1237   1.262       .  A
N1234      O1238   1.262       .  A
C1239      H1246   1.078       .  S
C1239      C1240   1.411       .  A
C1239      C1244   1.410       .  A
C1240      C1241   1.418       .  A
C1241      C1242   1.407       .  A
C1241      N1248   1.433       .  S
C1242      H1247   1.079       .  S
C1242      C1243   1.408       .  A
C1243      C1244   1.418       .  A
C1244      N1245   1.437       .  S
N1245      O1249   1.262       .  A
N1245      O1250   1.263       .  A
N1248      O1251   1.261       .  A
N1248      O1252   1.262       .  A
C1253      H1260   1.083       .  S
C1253      C1254   1.404       .  A
C1253      C1258   1.411       .  A
C1254      C1255   1.419       .  A
C1255      C1256   1.407       .  A
C1255      N1262   1.445       .  S
C1256      H1261   1.083       .  S
C1256      C1257   1.404       .  A
C1257      C1258   1.423       .  A
C1258      N1259   1.449       .  S
N1259      O1263   1.261       .  A
N1259      O1264   1.261       .  A
N1262      O1265   1.261       .  A
N1262      O1266   1.263       .  A
C1267      H1274   1.084       .  S
C1267      C1268   1.412       .  A
C1267      C1272   1.421   1_554  A
C1269      C1270   1.411       .  A
C1269      N1276   1.443       .  S
C1270      H1275   1.080       .  S
C1270      C1271   1.407   1_554  A
C1272      N1273   1.442       .  S
N1273      O1277   1.263       .  A
N1273      O1278   1.261       .  A
N1276      O1279   1.261       .  A
N1276      O1280   1.260       .  A
C1281      H2596   1.079       .  S
C1281      C1282   1.406       .  A
C1281      C2594   1.407   1_554  A
C1282      C1283   1.418       .  A
C1283      C1284   1.414   1_554  A
C1283      N1290   1.433       .  S
C1284      H1289   1.082       .  S
C1284      C2593   1.411       .  A
C1285      C2592   1.411       .  A
C1285      C1286   1.420   1_455  A
C1286      C2589   1.407   1_556  A
C1286      N1287   1.424   1_655  S
N1287      O1291   1.263       .  A
N1287      O1292   1.259   1_455  A
H1288      C2589   1.079       .  S
N1290      O1293   1.262       .  A
N1290      O1294   1.262       .  A
C1295      H1302   1.083       .  S
C1295      C1296   1.400       .  A
C1295      C1300   1.412       .  A
C1296      C1297   1.418   1_556  A
C1297      C1298   1.403       .  A
C1297      N1304   1.425       .  S
C1298      H1303   1.084       .  S
C1298      C1299   1.397       .  A
C1299      C1300   1.420   1_554  A
C1300      N1301   1.438       .  S
N1301      O1305   1.263   1_556  A
N1301      O1306   1.261       .  A
N1304      O1307   1.263       .  A
N1304      O1308   1.255       .  A
C1309      N1327   1.343       .  A
C1309      C1346   1.456       .  S
C1309      C1852   1.449   1_554  S
N1310      N1327   1.312       .  A
N1310      N1332   1.314       .  A
N1310     Co1347   2.038       .  S
C1311      N1336   1.344       .  A
C1311      C1349   1.466       .  S
C1311      H1356   1.080       .  S
H1312      C1353   1.082       .  S
C1313      N1337   1.342       .  A
C1313      C1317   1.470       .  S
C1313      H1342   1.080       .  S
Co1314     N1332   2.031       .  S
Co1314     N1322   2.111       .  S
Co1314     N1354   2.090       .  S
Co1314     N1330   2.080       .  S
Co1314    Cl1358   2.441       .  S
N1315      C1353   1.345       .  A
N1315      N1322   1.319       .  A
N1315     Co1316   2.086       .  S
Co1316     N1319   2.078       .  S
Co1316     N1336   2.098       .  S
Co1316     N1323   2.061       .  S
Co1316    Cl1358   2.441       .  S
C1317      N1355   1.350       .  A
C1317      C1897   1.505       .  S
N1318      N1325   1.319       .  A
N1318      N1348   1.329       .  A
N1318     Co1351   2.088       .  S
N1319      N1337   1.320       .  A
N1319      N1355   1.322       .  A
N1320      C1349   1.354       .  A
N1320      N1330   1.328       .  A
H1321      C1346   1.081       .  S
N1322      N1343   1.331       .  A
N1323      N1341   1.318       .  A
N1323      N1328   1.316       .  A
C1324      N1328   1.345       .  A
C1324      C1352   1.454       .  S
C1324      C1866   1.441       .  S
N1325      C1340   1.341       .  A
N1325     Co1347   2.091       .  S
C1326      N1354   1.344       .  A
C1326      C1329   1.471       .  S
C1326      H1360   1.079       .  S
C1329      N1350   1.352       .  A
C1329      C1936   1.514       .  S
N1330      N1336   1.316       .  A
N1331      C1357   1.344       .  A
N1331      N1333   1.317       .  A
N1331     Co1347   2.076       .  S
N1332      C1346   1.325       .  A
N1333      N1361   1.322       .  A
N1333     Co1351   2.086       .  S
H1334      C1357   1.082       .  S
H1335      C1352   1.081       .  S
N1337     Co1351   2.077       .  S
N1338      N1350   1.326       .  A
N1338      N1354   1.325       .  A
N1338     Co1347   2.095       .  S
C1339      N1343   1.355       .  A
C1339      C1353   1.467       .  S
C1339      C1922   1.504       .  S
C1340      C1359   1.458       .  S
C1340      H1344   1.081       .  S
N1341      C1352   1.333       .  A
N1341     Co1351   2.064       .  S
C1345      N1361   1.347       .  A
C1345      C1357   1.466       .  S
C1345      C1911   1.486       .  S
Co1347    Cl1358   2.441       .  S
N1348      C1359   1.355       .  A
C1349      C1883   1.503       .  S
Co1351    Cl1358   2.441       .  S
C1359      C1953   1.489       .  S
C1362      N1380   1.347       .  A
C1362      C1399   1.477       .  S
C1362      C1813   1.501       .  S
N1363      N1380   1.325       .  A
N1363      N1385   1.322       .  A
N1363     Co1400   2.106       .  S
C1364      N1389   1.329       .  A
C1364      C1402   1.452       .  S
C1364      H1409   1.077       .  S
H1365      C1406   1.078       .  S
C1366      N1390   1.339       .  A
C1366      C1370   1.454       .  S
C1366      H1395   1.080       .  S
Co1367     N1385   2.105       .  S
Co1367     N1375   2.086       .  S
Co1367     N1407   2.087       .  S
Co1367     N1383   2.085       .  S
Co1367    Cl1411   2.457       .  S
N1368      C1406   1.342       .  A
N1368      N1375   1.322       .  A
N1368     Co1369   2.069       .  S
Co1369     N1372   2.104       .  S
Co1369     N1389   2.071       .  S
Co1369     N1376   2.103       .  S
Co1369    Cl1411   2.442       .  S
C1370      N1408   1.360       .  A
C1370      C1838   1.497       .  S
N1371      N1378   1.316       .  A
N1371      N1401   1.316       .  A
N1371     Co1404   2.051       .  S
N1372      N1390   1.320       .  A
N1372      N1408   1.334       .  A
N1373      C1402   1.349       .  A
N1373      N1383   1.321       .  A
H1374      C1399   1.080       .  S
N1375      N1396   1.326       .  A
N1376      N1394   1.315       .  A
N1376      N1381   1.327       .  A
C1377      N1381   1.348       .  A
C1377      C1405   1.470       .  S
C1377      C1799   1.493       .  S
N1378      C1393   1.332       .  A
N1378     Co1400   2.060       .  S
C1379      N1407   1.336       .  A
C1379      C1382   1.462       .  S
C1379      H1413   1.081       .  S
C1382      N1403   1.364       .  A
C1382      C1771   1.509       .  S
N1383      N1389   1.323       .  A
N1384      C1410   1.339       .  A
N1384      N1386   1.326       .  A
N1384     Co1400   2.078       .  S
N1385      C1399   1.352       .  A
N1386      N1414   1.323       .  A
N1386     Co1404   2.085       .  S
H1387      C1410   1.081       .  S
H1388      C1405   1.078       .  S
N1390     Co1404   2.099       .  S
N1391      N1403   1.335       .  A
N1391      N1407   1.313       .  A
N1391     Co1400   2.102       .  S
C1392      N1396   1.350       .  A
C1392      C1406   1.457       .  S
C1392      C1782   1.495       .  S
C1393      C1412   1.450       .  S
C1393      H1397   1.078       .  S
N1394      C1405   1.349       .  A
N1394     Co1404   2.087       .  S
C1398      N1414   1.347       .  A
C1398      C1410   1.461       .  S
C1398      C1824   1.497       .  S
Co1400    Cl1411   2.434       .  S
N1401      C1412   1.342       .  A
C1402      C1855   1.473       .  S
Co1404    Cl1411   2.451       .  S
C1412      C1869   1.439       .  S
C1415      N1433   1.349       .  A
C1415      C1452   1.474       .  S
C1415      C1841   1.503       .  S
N1416      N1433   1.327       .  A
N1416      N1438   1.319       .  A
N1416     Co1453   2.103       .  S
C1417      N1442   1.325       .  A
C1417      C1455   1.438       .  S
C1417      H1462   1.078       .  S
H1418      C1459   1.081       .  S
C1419      N1443   1.342       .  A
C1419      C1423   1.458       .  S
C1419      H1448   1.081       .  S
Co1420     N1438   2.101       .  S
Co1420     N1428   2.089       .  S
Co1420     N1460   2.105       .  S
Co1420     N1436   2.072       .  S
Co1420    Cl1464   2.451       .  S
N1421      C1459   1.345       .  A
N1421      N1428   1.325       .  A
N1421     Co1422   2.089       .  S
Co1422     N1425   2.103       .  S
Co1422     N1442   2.046       .  S
Co1422     N1429   2.109       .  S
Co1422    Cl1464   2.444       .  S
C1423      N1461   1.359       .  A
C1423      C1810   1.499       .  S
N1424      N1431   1.316       .  A
N1424      N1454   1.313       .  A
N1424     Co1457   2.043       .  S
N1425      N1443   1.319       .  A
N1425      N1461   1.332       .  A
N1426      C1455   1.345       .  A
N1426      N1436   1.319       .  A
H1427      C1452   1.080       .  S
N1428      N1449   1.326       .  A
N1429      N1447   1.317       .  A
N1429      N1434   1.327       .  A
C1430      N1434   1.352       .  A
C1430      C1458   1.465       .  S
C1430      C1729   1.493       .  S
N1431      C1446   1.332       .  A
N1431     Co1453   2.066       .  S
C1432      N1460   1.345       .  A
C1432      C1435   1.459       .  S
C1432      H1466   1.081       .  S
C1435      N1456   1.357       .  A
C1435      C1743   1.495       .  S
N1436      N1442   1.321       .  A
N1437      C1463   1.342       .  A
N1437      N1439   1.322       .  A
N1437     Co1453   2.084       .  S
N1438      C1452   1.351       .  A
N1439      N1467   1.322       .  A
N1439     Co1457   2.083       .  S
H1440      C1463   1.079       .  S
H1441      C1458   1.082       .  S
N1443     Co1457   2.100       .  S
N1444      N1456   1.333       .  A
N1444      N1460   1.318       .  A
N1444     Co1453   2.097       .  S
C1445      N1449   1.349       .  A
C1445      C1459   1.465       .  S
C1445      C1757   1.496       .  S
C1446      C1465   1.458       .  S
C1446      H1450   1.079       .  S
N1447      C1458   1.343       .  A
N1447     Co1457   2.068       .  S
C1451      N1467   1.351       .  A
C1451      C1463   1.467       .  S
C1451      C1827   1.500       .  S
Co1453    Cl1464   2.440       .  S
N1454      C1465   1.343       .  A
C1455      C1715   1.434       .  S
Co1457    Cl1464   2.452       .  S
C1465      C1698   1.454       .  S
C1468      N1486   1.352       .  A
C1468      C1505   1.467       .  S
C1468      C1950   1.497       .  S
N1469      N1486   1.327       .  A
N1469      N1491   1.319       .  A
N1469     Co1506   2.107       .  S
C1470      N1495   1.332       .  A
C1470      C1508   1.463       .  S
C1470      H1515   1.079       .  S
H1471      C1512   1.080       .  S
C1472      N1496   1.339       .  A
C1472      C1476   1.458       .  S
C1472      H1501   1.081       .  S
Co1473     N1491   2.085       .  S
Co1473     N1481   2.078       .  S
Co1473     N1513   2.084       .  S
Co1473     N1489   2.050       .  S
Co1473    Cl1517   2.448       .  S
N1474      C1512   1.348       .  A
N1474      N1481   1.327       .  A
N1474     Co1475   2.103       .  S
Co1475     N1478   2.118       .  S
Co1475     N1495   2.064       .  S
Co1475     N1482   2.105       .  S
Co1475    Cl1517   2.452       .  S
C1476      N1514   1.365       .  A
C1476      C1925   1.508       .  S
N1477      N1484   1.321       .  A
N1477      N1507   1.316       .  A
N1477     Co1510   2.049       .  S
N1478      N1496   1.318       .  A
N1478      N1514   1.335       .  A
N1479      C1508   1.343       .  A
N1479      N1489   1.313       .  A
H1480      C1505   1.082       .  S
N1481      N1502   1.326       .  A
N1482      N1500   1.319       .  A
N1482      N1487   1.326       .  A
C1483      N1487   1.349       .  A
C1483      C1511   1.472       .  S
C1483      C1656   1.497       .  S
N1484      C1499   1.330       .  A
N1484     Co1506   2.070       .  S
C1485      N1513   1.336       .  A
C1485      C1488   1.455       .  S
C1485      H1519   1.080       .  S
C1488      N1509   1.362       .  A
C1488      C1670   1.498       .  S
N1489      N1495   1.317       .  A
N1490      C1516   1.343       .  A
N1490      N1492   1.325       .  A
N1490     Co1506   2.080       .  S
N1491      C1505   1.346       .  A
N1492      N1520   1.328       .  A
N1492     Co1510   2.096       .  S
H1493      C1516   1.075       .  S
H1494      C1511   1.082       .  S
N1496     Co1510   2.093       .  S
N1497      N1509   1.334       .  A
N1497      N1513   1.318       .  A
N1497     Co1506   2.107       .  S
C1498      N1502   1.348       .  A
C1498      C1512   1.474       .  S
C1498      C1684   1.518       .  S
C1499      C1518   1.453   1_556  S
C1499      H1503   1.080       .  S
N1500      C1511   1.346       .  A
N1500     Co1510   2.087       .  S
C1504      N1520   1.354       .  A
C1504      C1516   1.467       .  S
C1504      C1939   1.520       .  S
Co1506    Cl1517   2.450       .  S
N1507      C1518   1.341   1_556  A
C1508      C1701   1.458       .  S
Co1510    Cl1517   2.453       .  S
C1518      C1712   1.440       .  S
C1521      N1539   1.341       .  A
C1521      C1558   1.482       .  S
C1521      C1796   1.498       .  S
N1522      N1539   1.323       .  A
N1522      N1544   1.316       .  A
C1523      C1561   1.449   1_545  S
C1523      H1568   1.080       .  S
H1524      C1565   1.082       .  S
C1525      N1549   1.342       .  A
C1525      C1529   1.465       .  S
C1525      H1554   1.079   1_655  S
Co1526     N1544   2.119   1_554  S
Co1526     N1534   2.080       .  S
Co1526     N1542   2.076       .  S
N1527      C1565   1.344       .  A
N1527      N1534   1.327       .  A
N1527     Co2182   2.093       .  S
Co1528     N2181   2.093   1_545  S
Co1528     N1531   2.104   1_554  S
Co1528     N1548   2.054   1_545  S
C1529      N1567   1.362       .  A
C1529      C1768   1.509       .  S
N1530      N2191   1.322   1_545  A
N1530     Co1563   2.054       .  S
N1531      N1549   1.317       .  A
N1531      N1567   1.335       .  A
N1532      C2215   1.348       .  A
H1533      C1558   1.081       .  S
N1534      N1555   1.324       .  A
N1535      N1553   1.322       .  A
N1535      N1540   1.329       .  A
C1536      N1540   1.351       .  A
C1536      C1564   1.467       .  S
C1536      C1740   1.494       .  S
N1537      N2184   1.322       .  A
N1537     Co1559   2.064       .  S
C1538      N1566   1.339       .  A
C1538      C1541   1.459       .  S
C1538      H1572   1.080       .  S
C1541      N1562   1.357       .  A
C1541      C1726   1.495       .  S
N1542      N2202   1.318       .  A
N1543      C1569   1.342       .  A
N1543      N1545   1.322       .  A
N1543     Co2213   2.069   1_545  S
N1544      C1558   1.355       .  A
N1545      N1573   1.327       .  A
N1545     Co1563   2.095       .  S
H1546      C1569   1.077   1_565  S
H1547      C1564   1.082       .  S
N1548      N2196   1.318       .  A
N1550      N1562   1.330       .  A
N1550      N1566   1.317       .  A
N1550     Co1559   2.083   1_554  S
C1551      N1555   1.347       .  A
C1551      C1565   1.462       .  S
C1551      C1754   1.492       .  S
C1552      C1571   1.439       .  S
C1552      H1556   1.079       .  S
N1553      C1564   1.348       .  A
N1553     Co1563   2.093   1_554  S
C1557      N1573   1.352       .  A
C1557      C1569   1.458       .  S
C1557      C1785   1.499       .  S
Co1559     N2197   2.069       .  S
Co1559    Cl2224   2.453   1_556  S
N1560      C2225   1.342       .  A
C1561      N2186   1.348       .  A
C1561      C1642   1.447       .  S
Co1563    Cl1570   2.447   1_546  S
Cl1570    Co2213   2.453   1_554  S
C1571      N2214   1.342       .  A
C1571      C1631   1.436       .  S
C1574      N1592   1.350       .  A
C1574      C1611   1.465       .  S
C1574      C1908   1.488       .  S
N1575      N1592   1.325       .  A
N1575      N1597   1.320       .  A
C1576      C1614   1.447   1_545  S
C1576      H1621   1.081       .  S
H1577      C1618   1.081       .  S
C1578      N1602   1.341       .  A
C1578      C1582   1.460       .  S
C1578      H1607   1.080   1_655  S
Co1579     N1597   2.081       .  S
Co1579     N1587   2.103       .  S
Co1579     N1595   2.034       .  S
Co1579    Cl2277   2.455       .  S
N1580      C1618   1.343       .  A
N1580      N1587   1.326       .  A
N1580     Co2235   2.083       .  S
Co1581     N2234   2.083   1_545  S
Co1581     N1584   2.100       .  S
Co1581     N1601   2.057   1_545  S
Co1581    Cl1623   2.439   1_545  S
C1582      N1620   1.360       .  A
C1582      C1880   1.503       .  S
N1583      N2244   1.318   1_545  A
N1583     Co1616   2.057       .  S
N1584      N1602   1.318       .  A
N1584      N1620   1.330       .  A
N1585      C2268   1.337       .  A
H1586      C1611   1.082       .  S
N1587      N1608   1.331       .  A
N1588      N1606   1.318       .  A
N1588      N1593   1.325       .  A
C1589      N1593   1.348       .  A
C1589      C1617   1.475       .  S
C1589      C1673   1.501       .  S
N1590      N2237   1.318       .  A
N1590     Co1612   2.066       .  S
C1591      N1619   1.344       .  A
C1591      C1594   1.464       .  S
C1591      H1625   1.081       .  S
C1594      N1615   1.357       .  A
C1594      C1659   1.502       .  S
N1595      N2255   1.320       .  A
N1596      C1622   1.341       .  A
N1596      N1598   1.323       .  A
N1596     Co2266   2.081   1_545  S
N1597      C1611   1.344       .  A
N1598      N1626   1.324       .  A
N1598     Co1616   2.088       .  S
H1599      C1622   1.079   1_565  S
H1600      C1617   1.082       .  S
N1601      N2249   1.320       .  A
N1603      N1615   1.332       .  A
N1603      N1619   1.318       .  A
N1603     Co1612   2.089       .  S
C1604      N1608   1.355       .  A
C1604      C1618   1.465       .  S
C1604      C1687   1.515       .  S
C1605      C1624   1.454       .  S
C1605      H1609   1.077       .  S
N1606      C1617   1.351       .  A
N1606     Co1616   2.101       .  S
C1610      N1626   1.352       .  A
C1610      C1622   1.468       .  S
C1610      C1894   1.510       .  S
Co1612     N2250   2.081       .  S
N1613      C2278   1.345       .  A
C1614      N2239   1.337       .  A
C1614      C1628   1.425       .  S
Cl1623    Co2233   2.455       .  S
C1624      N2267   1.345       .  A
C1624      C1645   1.445       .  S
C1627      H1634   1.086       .  S
C1627      C1632   1.376       .  A
C1628      C2283   1.413       .  A
C1629      C2282   1.413       .  A
C1629      N1636   1.437       .  S
C1630      H1635   1.081       .  S
C1630      C1631   1.386       .  A
C1631      C2286   1.399   1_455  A
C1632      C2285   1.399   1_655  A
C1632      N1633   1.411   1_565  S
N1633      O1637   1.258       .  A
N1633      O1638   1.262   1_545  A
N1636      O1639   1.262       .  A
C1641      H1648   1.084       .  S
C1641      C1642   1.404       .  A
C1641      C2300   1.396   1_565  A
C1643      C2298   1.394       .  A
C1643      N1650   1.447   1_545  S
C1644      H1649   1.084       .  S
C1644      C2297   1.394       .  A
C1644      C1645   1.401   1_655  A
C1646      C2295   1.396       .  A
C1646      N1647   1.448       .  S
N1647      O1651   1.263       .  A
N1647      O2306   1.262       .  A
N1650      O2307   1.261       .  A
N1650      O1654   1.263   1_565  A
O1652      N2301   1.262       .  A
O1653      N2304   1.261       .  A
C1655      H1662   1.082       .  S
C1655      C1656   1.401       .  A
C1655      C1660   1.407       .  A
C1656      C1657   1.419       .  A
C1657      C1658   1.415       .  A
C1657      N1664   1.433       .  S
C1658      H1663   1.083       .  S
C1658      C1659   1.409       .  A
C1659      C1660   1.419       .  A
C1660      N1661   1.435       .  S
N1661      O1666   1.260       .  A
N1664      O1667   1.261       .  A
N1664      O1668   1.262       .  A
C1669      H1676   1.084       .  S
C1669      C1670   1.402       .  A
C1669      C1674   1.412       .  A
C1670      C1671   1.418       .  A
C1671      C1672   1.409       .  A
C1671      N1678   1.436       .  S
C1672      H1677   1.083       .  S
C1672      C1673   1.404       .  A
C1673      C1674   1.423       .  A
C1674      N1675   1.435       .  S
N1675      O1680   1.261       .  A
N1678      O1681   1.263       .  A
N1678      O1682   1.262       .  A
C1683      H1690   1.080       .  S
C1683      C1684   1.409       .  A
C1683      C1688   1.412       .  A
C1684      C1685   1.426       .  A
C1685      C1686   1.420       .  A
C1685      N1692   1.440       .  S
C1686      H1691   1.083       .  S
C1686      C1687   1.409       .  A
C1687      C1688   1.414       .  A
C1688      N1689   1.432       .  S
N1689      O1693   1.262       .  A
N1689      O1694   1.260       .  A
N1692      O1695   1.262       .  A
N1692      O1696   1.262       .  A
C1697      H1704   1.082       .  S
C1697      C1698   1.403       .  A
C1697      C1702   1.388       .  A
C1698      C1699   1.404       .  A
C1699      C1700   1.387       .  A
C1699      N1706   1.432       .  S
C1700      H1705   1.083       .  S
C1700      C1701   1.406       .  A
C1701      C1702   1.406       .  A
C1702      N1703   1.433       .  S
N1703      O1707   1.262       .  A
N1703      O1708   1.261       .  A
N1706      O1709   1.262       .  A
N1706      O1710   1.263       .  A
C1711      H1718   1.085       .  S
C1711      C1712   1.394       .  A
C1711      C1716   1.391       .  A
C1712      C1713   1.424       .  A
C1713      C1714   1.391       .  A
C1713      N1720   1.453       .  S
C1714      H1719   1.082       .  S
C1714      C1715   1.389       .  A
C1715      C1716   1.415       .  A
C1716      N1717   1.444       .  S
N1717      O1721   1.263       .  A
N1717      O1722   1.261       .  A
N1720      O1723   1.260   1_554  A
N1720      O1724   1.263       .  A
C1725      H1732   1.081       .  S
C1725      C1726   1.407       .  A
C1725      C1730   1.408       .  A
C1726      C1727   1.409       .  A
C1727      C1728   1.407       .  A
C1727      N1734   1.428       .  S
C1728      H1733   1.080       .  S
C1728      C1729   1.407       .  A
C1729      C1730   1.416       .  A
C1730      N1731   1.439       .  S
N1731      O1735   1.263       .  A
N1731      O1736   1.262       .  A
N1734      O1737   1.262       .  A
N1734      O1738   1.260       .  A
C1739      H1746   1.083       .  S
C1739      C1740   1.406       .  A
C1739      C1744   1.414       .  A
C1740      C1741   1.418       .  A
C1741      C1742   1.415       .  A
C1741      N1748   1.442       .  S
C1742      H1747   1.082       .  S
C1742      C1743   1.405       .  A
C1743      C1744   1.415       .  A
C1744      N1745   1.439       .  S
N1745      O1749   1.262       .  A
N1745      O1750   1.262       .  A
N1748      O1751   1.262       .  A
N1748      O1752   1.263       .  A
C1753      H1760   1.082       .  S
C1753      C1754   1.408       .  A
C1753      C1758   1.413       .  A
C1754      C1755   1.403       .  A
C1755      C1756   1.410       .  A
C1755      N1762   1.434       .  S
C1756      H1761   1.083       .  S
C1756      C1757   1.413       .  A
C1757      C1758   1.417       .  A
C1758      N1759   1.443       .  S
N1759      O1763   1.263       .  A
N1759      O1764   1.263       .  A
N1762      O1765   1.263       .  A
N1762      O1766   1.259       .  A
C1767      H1774   1.083       .  S
C1767      C1768   1.407       .  A
C1767      C1772   1.418       .  A
C1768      C1769   1.420       .  A
C1769      C1770   1.413       .  A
C1769      N1776   1.429       .  S
C1770      H1775   1.083       .  S
C1770      C1771   1.406       .  A
C1771      C1772   1.423       .  A
C1772      N1773   1.437       .  S
N1773      O1777   1.263   1_545  A
N1773      O1778   1.262   1_545  A
N1776      O1779   1.262   1_655  A
N1776      O1780   1.262       .  A
C1781      H1788   1.085       .  S
C1781      C1782   1.394       .  A
C1781      C1786   1.408       .  A
C1782      C1783   1.424       .  A
C1783      C1784   1.408       .  A
C1783      N1790   1.430       .  S
C1784      H1789   1.085       .  S
C1784      C1785   1.398       .  A
C1785      C1786   1.429       .  A
C1786      N1787   1.432       .  S
N1787      O1791   1.261   1_545  A
N1787      O1792   1.260   1_545  A
N1790      O1793   1.261       .  A
N1790      O1794   1.262       .  A
C1795      H1802   1.083       .  S
C1795      C1796   1.404       .  A
C1795      C1800   1.415       .  A
C1796      C1797   1.425       .  A
C1797      C1798   1.413       .  A
C1797      N1804   1.442       .  S
C1798      H1803   1.083       .  S
C1798      C1799   1.402       .  A
C1799      C1800   1.416       .  A
C1800      N1801   1.440       .  S
N1801      O1805   1.263       .  A
N1801      O1806   1.263       .  A
N1804      O1807   1.260       .  A
N1804      O1808   1.263       .  A
C1809      H1816   1.084       .  S
C1809      C1810   1.408       .  A
C1809      C1814   1.414       .  A
C1810      C1811   1.414       .  A
C1811      C2466   1.410       .  A
C1811      N1818   1.434       .  S
C1812      H1817   1.082       .  S
C1812      C2465   1.410   1_545  A
C1812      C1813   1.408       .  A
C1813      C2468   1.417       .  A
C1814      C2467   1.417       .  A
C1814      N1815   1.437       .  S
N1815      O1819   1.262       .  A
N1815      O1820   1.262       .  A
N1818      O2475   1.262       .  A
N1818      O1822   1.263       .  A
O1821      N2472   1.262       .  A
C1823      H1830   1.081       .  S
C1823      C1828   1.401       .  A
C1824      C1825   1.422       .  A
C1825      C1826   1.406       .  A
C1825      N1832   1.434       .  S
C1826      H1831   1.079       .  S
C1827      C1828   1.419       .  A
C1828      N1829   1.425       .  S
N1829      O1833   1.260       .  A
N1829      O1834   1.260       .  A
N1832      O1835   1.261       .  A
N1832      O1836   1.262       .  A
C1837      H1844   1.084       .  S
C1837      C1838   1.405       .  A
C1837      C1842   1.410       .  A
C1838      C1839   1.420       .  A
C1839      C1840   1.416       .  A
C1839      N1846   1.442       .  S
C1840      H1845   1.081       .  S
C1840      C1841   1.409       .  A
C1841      C1842   1.418       .  A
C1842      N1843   1.440       .  S
N1843      O1847   1.262       .  A
N1843      O1848   1.263       .  A
N1846      O1849   1.262       .  A
N1846      O1850   1.263       .  A
C1851      H1858   1.081       .  S
C1851      C1852   1.390       .  A
C1851      C1856   1.380       .  A
C1852      C1853   1.407       .  A
C1853      C1854   1.392       .  A
C1853      N1860   1.439       .  S
C1854      H1859   1.079       .  S
C1854      C1855   1.407       .  A
C1855      C1856   1.412       .  A
C1856      N1857   1.422       .  S
N1857      O1861   1.250       .  A
N1857      O1862   1.263       .  A
N1860      O1863   1.263       .  A
N1860      O1864   1.263       .  A
C1865      H1872   1.084       .  S
C1865      C1866   1.403       .  A
C1865      C1870   1.395       .  A
C1866      C1867   1.403       .  A
C1867      C1868   1.391       .  A
C1867      N1874   1.441       .  S
C1868      H1873   1.085       .  S
C1868      C1869   1.404       .  A
C1869      C1870   1.411       .  A
C1870      N1871   1.450       .  S
N1871      O1875   1.262       .  A
N1871      O1876   1.263       .  A
N1874      O1877   1.262       .  A
N1874      O1878   1.262       .  A
C1879      H1886   1.081       .  S
C1879      C1880   1.409       .  A
C1879      C1884   1.410       .  A
C1880      C1881   1.415       .  A
C1881      C1882   1.411       .  A
C1881      N1888   1.437       .  S
C1882      H1887   1.081       .  S
C1882      C1883   1.410       .  A
C1883      C1884   1.420       .  A
C1884      N1885   1.438       .  S
N1885      O1889   1.263       .  A
N1885      O1890   1.261       .  A
N1888      O1891   1.262       .  A
N1888      O1892   1.262       .  A
C1893      H1900   1.078       .  S
C1893      C1894   1.411       .  A
C1893      C1898   1.410       .  A
C1894      C1895   1.418       .  A
C1895      C1896   1.407       .  A
C1895      N1902   1.433       .  S
C1896      H1901   1.079       .  S
C1896      C1897   1.408       .  A
C1897      C1898   1.418       .  A
C1898      N1899   1.437       .  S
N1899      O1903   1.262   1_545  A
N1899      O1904   1.263       .  A
N1902      O1905   1.261       .  A
N1902      O1906   1.262       .  A
C1907      H1914   1.083       .  S
C1907      C1908   1.404       .  A
C1907      C1912   1.411       .  A
C1908      C1909   1.419       .  A
C1909      C1910   1.407       .  A
C1909      N1916   1.445       .  S
C1910      H1915   1.083       .  S
C1910      C1911   1.404       .  A
C1911      C1912   1.423       .  A
C1912      N1913   1.449       .  S
N1913      O1917   1.261       .  A
N1913      O1918   1.261       .  A
N1916      O1919   1.261       .  A
N1916      O1920   1.263       .  A
C1921      H1928   1.084       .  S
C1921      C1922   1.412       .  A
C1921      C1926   1.421   1_554  A
C1922      C2577   1.420   1_545  A
C1923      C2576   1.420       .  A
C1923      C1924   1.411       .  A
C1923      N1930   1.443       .  S
C1924      H1929   1.080       .  S
C1924      C1925   1.407   1_554  A
C1925      C2580   1.419       .  A
C1926      C2579   1.419   1_545  A
C1926      N1927   1.442       .  S
N1927      O1931   1.263       .  A
N1927      O1932   1.261       .  A
N1930      O1933   1.261       .  A
N1930      O1934   1.260       .  A
C1935      C1936   1.406       .  A
C1936      C1937   1.418       .  A
C1937      C1938   1.414   1_654  A
C1937      N1944   1.433       .  S
C1938      H1943   1.082       .  S
C1939      C1940   1.420       .  A
C1940      N1941   1.424       .  S
N1941      O1945   1.263       .  A
N1941      O1946   1.259       .  A
N1944      O1947   1.262   1_655  A
N1944      O1948   1.262       .  A
C1949      H1956   1.083       .  S
C1949      C1950   1.400       .  A
C1949      C1954   1.412       .  A
C1950      C1951   1.418   1_556  A
C1951      C1952   1.403       .  A
C1951      N1958   1.425       .  S
C1952      H1957   1.084       .  S
C1952      C1953   1.397       .  A
C1953      C1954   1.420   1_554  A
C1954      N1955   1.438       .  S
N1955      O1959   1.263   1_556  A
N1955      O1960   1.261       .  A
N1958      O1961   1.263       .  A
N1958      O1962   1.255       .  A
C1963      N1981   1.343       .  A
C1963      C2000   1.456       .  S
C1963      C2506   1.449   1_554  S
N1964      N1981   1.312       .  A
N1964      N1986   1.314       .  A
N1964     Co2001   2.038       .  S
C1965      N1990   1.344       .  A
C1965      C2003   1.466       .  S
C1965      H2010   1.080       .  S
H1966      C2007   1.082       .  S
C1967      N1991   1.342       .  A
C1967      C1971   1.470       .  S
C1967      H1996   1.080       .  S
Co1968     N1986   2.031       .  S
Co1968     N1976   2.111       .  S
Co1968     N2008   2.090       .  S
Co1968     N1984   2.080       .  S
Co1968    Cl2012   2.441       .  S
N1969      C2007   1.345       .  A
N1969      N1976   1.319       .  A
N1969     Co1970   2.086       .  S
Co1970     N1973   2.078       .  S
Co1970     N1990   2.098       .  S
Co1970     N1977   2.061       .  S
Co1970    Cl2012   2.441       .  S
C1971      N2009   1.350       .  A
C1971      C2551   1.505       .  S
N1972      N1979   1.319       .  A
N1972      N2002   1.329       .  A
N1972     Co2005   2.088       .  S
N1973      N1991   1.320       .  A
N1973      N2009   1.322       .  A
N1974      C2003   1.354       .  A
N1974      N1984   1.328       .  A
H1975      C2000   1.081       .  S
N1976      N1997   1.331       .  A
N1977      N1995   1.318       .  A
N1977      N1982   1.316       .  A
C1978      N1982   1.345       .  A
C1978      C2006   1.454       .  S
C1978      C2520   1.441       .  S
N1979      C1994   1.341       .  A
N1979     Co2001   2.091       .  S
C1980      N2008   1.344       .  A
C1980      C1983   1.471       .  S
C1980      H2014   1.079       .  S
C1983      N2004   1.352       .  A
C1983      C2590   1.514       .  S
N1984      N1990   1.316       .  A
N1985      C2011   1.344       .  A
N1985      N1987   1.317       .  A
N1985     Co2001   2.076       .  S
N1986      C2000   1.325       .  A
N1987      N2015   1.322       .  A
N1987     Co2005   2.086       .  S
H1988      C2011   1.082       .  S
H1989      C2006   1.081       .  S
N1991     Co2005   2.077       .  S
N1992      N2004   1.326       .  A
N1992      N2008   1.325       .  A
N1992     Co2001   2.095       .  S
C1993      N1997   1.355       .  A
C1993      C2007   1.467       .  S
C1993      C2576   1.504       .  S
C1994      C2013   1.458       .  S
C1994      H1998   1.081       .  S
N1995      C2006   1.333       .  A
N1995     Co2005   2.064       .  S
C1999      N2015   1.347       .  A
C1999      C2011   1.466       .  S
C1999      C2565   1.486       .  S
Co2001    Cl2012   2.441       .  S
N2002      C2013   1.355       .  A
C2003      C2537   1.503       .  S
Co2005    Cl2012   2.441       .  S
C2013      C2607   1.489       .  S
C2016      N2034   1.347       .  A
C2016      C2053   1.477       .  S
C2016      C2467   1.501       .  S
N2017      N2034   1.325       .  A
N2017      N2039   1.322       .  A
N2017     Co2054   2.106       .  S
C2018      N2043   1.329       .  A
C2018      C2056   1.452       .  S
C2018      H2063   1.077       .  S
H2019      C2060   1.078       .  S
C2020      N2044   1.339       .  A
C2020      C2024   1.454       .  S
C2020      H2049   1.080       .  S
Co2021     N2039   2.105       .  S
Co2021     N2029   2.086       .  S
Co2021     N2061   2.087       .  S
Co2021     N2037   2.085       .  S
Co2021    Cl2065   2.457       .  S
N2022      C2060   1.342       .  A
N2022      N2029   1.322       .  A
N2022     Co2023   2.069       .  S
Co2023     N2026   2.104       .  S
Co2023     N2043   2.071       .  S
Co2023     N2030   2.103       .  S
Co2023    Cl2065   2.442       .  S
C2024      N2062   1.360       .  A
C2024      C2492   1.497       .  S
N2025      N2032   1.316       .  A
N2025      N2055   1.316       .  A
N2025     Co2058   2.051       .  S
N2026      N2044   1.320       .  A
N2026      N2062   1.334       .  A
N2027      C2056   1.349       .  A
N2027      N2037   1.321       .  A
H2028      C2053   1.080       .  S
N2029      N2050   1.326       .  A
N2030      N2048   1.315       .  A
N2030      N2035   1.327       .  A
C2031      N2035   1.348       .  A
C2031      C2059   1.470       .  S
C2031      C2453   1.493       .  S
N2032      C2047   1.332       .  A
N2032     Co2054   2.060       .  S
C2033      N2061   1.336       .  A
C2033      C2036   1.462       .  S
C2033      H2067   1.081       .  S
C2036      N2057   1.364       .  A
C2036      C2425   1.509       .  S
N2037      N2043   1.323       .  A
N2038      C2064   1.339       .  A
N2038      N2040   1.326       .  A
N2038     Co2054   2.078       .  S
N2039      C2053   1.352       .  A
N2040      N2068   1.323       .  A
N2040     Co2058   2.085       .  S
H2041      C2064   1.081       .  S
H2042      C2059   1.078       .  S
N2044     Co2058   2.099       .  S
N2045      N2057   1.335       .  A
N2045      N2061   1.313       .  A
N2045     Co2054   2.102       .  S
C2046      N2050   1.350       .  A
C2046      C2060   1.457       .  S
C2046      C2436   1.495       .  S
C2047      C2066   1.450       .  S
C2047      H2051   1.078       .  S
N2048      C2059   1.349       .  A
N2048     Co2058   2.087       .  S
C2052      N2068   1.347       .  A
C2052      C2064   1.461       .  S
C2052      C2478   1.497       .  S
Co2054    Cl2065   2.434       .  S
N2055      C2066   1.342       .  A
C2056      C2509   1.473       .  S
Co2058    Cl2065   2.451       .  S
C2066      C2523   1.439       .  S
C2069      N2087   1.349       .  A
C2069      C2106   1.474       .  S
C2069      C2495   1.503       .  S
N2070      N2087   1.327       .  A
N2070      N2092   1.319       .  A
N2070     Co2107   2.103       .  S
C2071      N2096   1.325       .  A
C2071      C2109   1.438       .  S
C2071      H2116   1.078       .  S
H2072      C2113   1.081       .  S
C2073      N2097   1.342       .  A
C2073      C2077   1.458       .  S
C2073      H2102   1.081       .  S
Co2074     N2092   2.101       .  S
Co2074     N2082   2.089       .  S
Co2074     N2114   2.105       .  S
Co2074     N2090   2.072       .  S
Co2074    Cl2118   2.451       .  S
N2075      C2113   1.345       .  A
N2075      N2082   1.325       .  A
N2075     Co2076   2.089       .  S
Co2076     N2079   2.103       .  S
Co2076     N2096   2.046       .  S
Co2076     N2083   2.109       .  S
Co2076    Cl2118   2.444       .  S
C2077      N2115   1.359       .  A
C2077      C2464   1.499       .  S
N2078      N2085   1.316       .  A
N2078      N2108   1.313       .  A
N2078     Co2111   2.043       .  S
N2079      N2097   1.319       .  A
N2079      N2115   1.332       .  A
N2080      C2109   1.345       .  A
N2080      N2090   1.319       .  A
H2081      C2106   1.080       .  S
N2082      N2103   1.326       .  A
N2083      N2101   1.317       .  A
N2083      N2088   1.327       .  A
C2084      N2088   1.352       .  A
C2084      C2112   1.465       .  S
C2084      C2383   1.493       .  S
N2085      C2100   1.332       .  A
N2085     Co2107   2.066       .  S
C2086      N2114   1.345       .  A
C2086      C2089   1.459       .  S
C2086      H2120   1.081       .  S
C2089      N2110   1.357       .  A
C2089      C2397   1.495       .  S
N2090      N2096   1.321       .  A
N2091      C2117   1.342       .  A
N2091      N2093   1.322       .  A
N2091     Co2107   2.084       .  S
N2092      C2106   1.351       .  A
N2093      N2121   1.322       .  A
N2093     Co2111   2.083       .  S
H2094      C2117   1.079       .  S
H2095      C2112   1.082       .  S
N2097     Co2111   2.100       .  S
N2098      N2110   1.333       .  A
N2098      N2114   1.318       .  A
N2098     Co2107   2.097       .  S
C2099      N2103   1.349       .  A
C2099      C2113   1.465       .  S
C2099      C2411   1.496       .  S
C2100      C2119   1.458       .  S
C2100      H2104   1.079       .  S
N2101      C2112   1.343       .  A
N2101     Co2111   2.068       .  S
C2105      N2121   1.351       .  A
C2105      C2117   1.467       .  S
C2105      C2481   1.500       .  S
Co2107    Cl2118   2.440       .  S
N2108      C2119   1.343       .  A
C2109      C2369   1.434       .  S
Co2111    Cl2118   2.452       .  S
C2119      C2352   1.454       .  S
C2122      N2140   1.352       .  A
C2122      C2159   1.467       .  S
C2122      C2604   1.497       .  S
N2123      N2140   1.327       .  A
N2123      N2145   1.319       .  A
N2123     Co2160   2.107       .  S
C2124      N2149   1.332       .  A
C2124      C2162   1.463       .  S
C2124      H2169   1.079       .  S
H2125      C2166   1.080       .  S
C2126      N2150   1.339       .  A
C2126      C2130   1.458       .  S
C2126      H2155   1.081       .  S
Co2127     N2145   2.085       .  S
Co2127     N2135   2.078       .  S
Co2127     N2167   2.084       .  S
Co2127     N2143   2.050       .  S
Co2127    Cl2171   2.448       .  S
N2128      C2166   1.348       .  A
N2128      N2135   1.327       .  A
N2128     Co2129   2.103       .  S
Co2129     N2132   2.118       .  S
Co2129     N2149   2.064       .  S
Co2129     N2136   2.105       .  S
Co2129    Cl2171   2.452       .  S
C2130      N2168   1.365       .  A
C2130      C2579   1.508       .  S
N2131      N2138   1.321       .  A
N2131      N2161   1.316       .  A
N2131     Co2164   2.049       .  S
N2132      N2150   1.318       .  A
N2132      N2168   1.335       .  A
N2133      C2162   1.343       .  A
N2133      N2143   1.313       .  A
H2134      C2159   1.082       .  S
N2135      N2156   1.326       .  A
N2136      N2154   1.319       .  A
N2136      N2141   1.326       .  A
C2137      N2141   1.349       .  A
C2137      C2165   1.472       .  S
C2137      C2310   1.497       .  S
N2138      C2153   1.330       .  A
N2138     Co2160   2.070       .  S
C2139      N2167   1.336       .  A
C2139      C2142   1.455       .  S
C2139      H2173   1.080       .  S
C2142      N2163   1.362       .  A
C2142      C2324   1.498       .  S
N2143      N2149   1.317       .  A
N2144      C2170   1.343       .  A
N2144      N2146   1.325       .  A
N2144     Co2160   2.080       .  S
N2145      C2159   1.346       .  A
N2146      N2174   1.328       .  A
N2146     Co2164   2.096       .  S
H2147      C2170   1.075       .  S
H2148      C2165   1.082       .  S
N2150     Co2164   2.093       .  S
N2151      N2163   1.334       .  A
N2151      N2167   1.318       .  A
N2151     Co2160   2.107       .  S
C2152      N2156   1.348       .  A
C2152      C2166   1.474       .  S
C2152      C2338   1.518       .  S
C2153      C2172   1.453   1_556  S
C2153      H2157   1.080       .  S
N2154      C2165   1.346       .  A
N2154     Co2164   2.087       .  S
C2158      N2174   1.354       .  A
C2158      C2170   1.467       .  S
C2158      C2593   1.520       .  S
Co2160    Cl2171   2.450       .  S
N2161      C2172   1.341   1_556  A
C2162      C2355   1.458       .  S
Co2164    Cl2171   2.453       .  S
C2172      C2366   1.440       .  S
C2175      N2193   1.341       .  A
C2175      C2212   1.482       .  S
C2175      C2450   1.498       .  S
N2176      N2193   1.323       .  A
N2176      N2198   1.316       .  A
C2177      C2215   1.449       .  S
C2177      H2222   1.080       .  S
H2178      C2219   1.082       .  S
C2179      N2203   1.342       .  A
C2179      C2183   1.465       .  S
C2179      H2208   1.079   1_655  S
Co2180     N2198   2.119   1_554  S
Co2180     N2188   2.080       .  S
Co2180     N2196   2.076       .  S
N2181      C2219   1.344       .  A
N2181      N2188   1.327       .  A
Co2182     N2185   2.104   1_554  S
Co2182     N2202   2.054       .  S
C2183      N2221   1.362       .  A
C2183      C2422   1.509       .  S
N2184     Co2217   2.054       .  S
N2185      N2203   1.317       .  A
N2185      N2221   1.335       .  A
H2187      C2212   1.081       .  S
N2188      N2209   1.324       .  A
N2189      N2207   1.322       .  A
N2189      N2194   1.329       .  A
C2190      N2194   1.351       .  A
C2190      C2218   1.467       .  S
C2190      C2394   1.494       .  S
N2191     Co2213   2.064       .  S
C2192      N2220   1.339       .  A
C2192      C2195   1.459       .  S
C2192      H2226   1.080       .  S
C2195      N2216   1.357       .  A
C2195      C2380   1.495       .  S
N2197      C2223   1.342       .  A
N2197      N2199   1.322       .  A
N2198      C2212   1.355       .  A
N2199      N2227   1.327       .  A
N2199     Co2217   2.095       .  S
H2200      C2223   1.077       .  S
H2201      C2218   1.082       .  S
N2204      N2216   1.330       .  A
N2204      N2220   1.317       .  A
N2204     Co2213   2.083   1_554  S
C2205      N2209   1.347       .  A
C2205      C2219   1.462       .  S
C2205      C2408   1.492       .  S
C2206      C2225   1.439   1_565  S
C2206      H2210   1.079       .  S
N2207      C2218   1.348       .  A
N2207     Co2217   2.093   1_554  S
C2211      N2227   1.352       .  A
C2211      C2223   1.458       .  S
C2211      C2439   1.499       .  S
C2215      C2296   1.447       .  S
Co2217    Cl2224   2.447   1_556  S
C2225      C2285   1.436   1_545  S
C2228      N2246   1.350       .  A
C2228      C2265   1.465       .  S
C2228      C2562   1.488       .  S
N2229      N2246   1.325       .  A
N2229      N2251   1.320       .  A
C2230      C2268   1.447       .  S
C2230      H2275   1.081       .  S
H2231      C2272   1.081   1_545  S
C2232      N2256   1.341       .  A
C2232      C2236   1.460       .  S
C2232      H2261   1.080   1_655  S
Co2233     N2251   2.081       .  S
Co2233     N2241   2.103       .  S
Co2233     N2249   2.034       .  S
N2234      C2272   1.343       .  A
N2234      N2241   1.326       .  A
Co2235     N2238   2.100       .  S
Co2235     N2255   2.057       .  S
Co2235    Cl2277   2.439       .  S
C2236      N2274   1.360       .  A
C2236      C2534   1.503       .  S
N2237     Co2270   2.057       .  S
N2238      N2256   1.318       .  A
N2238      N2274   1.330       .  A
H2240      C2265   1.082       .  S
N2241      N2262   1.331       .  A
N2242      N2260   1.318       .  A
N2242      N2247   1.325       .  A
C2243      N2247   1.348       .  A
C2243      C2271   1.475       .  S
C2243      C2327   1.501       .  S
N2244     Co2266   2.066       .  S
C2245      N2273   1.344       .  A
C2245      C2248   1.464       .  S
C2245      H2279   1.081       .  S
C2248      N2269   1.357       .  A
C2248      C2313   1.502       .  S
N2250      C2276   1.341       .  A
N2250      N2252   1.323       .  A
N2251      C2265   1.344       .  A
N2252      N2280   1.324       .  A
N2252     Co2270   2.088       .  S
H2253      C2276   1.079       .  S
H2254      C2271   1.082       .  S
N2257      N2269   1.332       .  A
N2257      N2273   1.318       .  A
N2257     Co2266   2.089       .  S
C2258      N2262   1.355       .  A
C2258      C2272   1.465       .  S
C2258      C2341   1.515       .  S
C2259      C2278   1.454   1_565  S
C2259      H2263   1.077       .  S
N2260      C2271   1.351       .  A
N2260     Co2270   2.101       .  S
C2264      N2280   1.352       .  A
C2264      C2276   1.468       .  S
C2264      C2548   1.510       .  S
C2268      C2282   1.425       .  S
C2278      C2299   1.445       .  S
C2281      H2288   1.086       .  S
C2281      C2286   1.376       .  A
C2283      N2290   1.437       .  S
C2284      H2289   1.081       .  S
C2284      C2285   1.386       .  A
C2286      N2287   1.411       .  S
N2287      O2291   1.258       .  A
N2287      O2292   1.262       .  A
N2290      O2293   1.262       .  A
C2295      H2302   1.084       .  S
C2295      C2296   1.404       .  A
C2297      N2304   1.447       .  S
C2298      H2303   1.084       .  S
C2298      C2299   1.401   1_655  A
C2300      N2301   1.448       .  S
N2301      O2305   1.263       .  A
N2304      O2308   1.263       .  A
C2309      H2316   1.082       .  S
C2309      C2310   1.401       .  A
C2309      C2314   1.407       .  A
C2310      C2311   1.419       .  A
C2311      C2312   1.415       .  A
C2311      N2318   1.433       .  S
C2312      H2317   1.083       .  S
C2312      C2313   1.409       .  A
C2313      C2314   1.419       .  A
C2314      N2315   1.435       .  S
N2315      O2320   1.260       .  A
N2318      O2321   1.261       .  A
N2318      O2322   1.262   1_565  A
C2323      H2330   1.084       .  S
C2323      C2324   1.402       .  A
C2323      C2328   1.412       .  A
C2324      C2325   1.418       .  A
C2325      C2326   1.409       .  A
C2325      N2332   1.436       .  S
C2326      H2331   1.083       .  S
C2326      C2327   1.404       .  A
C2327      C2328   1.423       .  A
C2328      N2329   1.435       .  S
N2329      O2334   1.261       .  A
N2332      O2335   1.263       .  A
N2332      O2336   1.262       .  A
C2337      H2344   1.080       .  S
C2337      C2338   1.409       .  A
C2337      C2342   1.412       .  A
C2338      C2339   1.426       .  A
C2339      C2340   1.420       .  A
C2339      N2346   1.440       .  S
C2340      H2345   1.083       .  S
C2340      C2341   1.409       .  A
C2341      C2342   1.414       .  A
C2342      N2343   1.432       .  S
N2343      O2347   1.262       .  A
N2343      O2348   1.260   1_565  A
N2346      O2349   1.262       .  A
N2346      O2350   1.262       .  A
C2351      H2358   1.082       .  S
C2351      C2352   1.403       .  A
C2351      C2356   1.388       .  A
C2352      C2353   1.404       .  A
C2353      C2354   1.387       .  A
C2353      N2360   1.432       .  S
C2354      H2359   1.083       .  S
C2354      C2355   1.406       .  A
C2355      C2356   1.406       .  A
C2356      N2357   1.433       .  S
N2357      O2361   1.262       .  A
N2357      O2362   1.261       .  A
N2360      O2363   1.262       .  A
N2360      O2364   1.263       .  A
C2365      H2372   1.085       .  S
C2365      C2366   1.394       .  A
C2365      C2370   1.391       .  A
C2366      C2367   1.424       .  A
C2367      C2368   1.391       .  A
C2367      N2374   1.453       .  S
C2368      H2373   1.082       .  S
C2368      C2369   1.389       .  A
C2369      C2370   1.415       .  A
C2370      N2371   1.444       .  S
N2371      O2375   1.263       .  A
N2371      O2376   1.261       .  A
N2374      O2377   1.260   1_554  A
N2374      O2378   1.263       .  A
C2379      H2386   1.081       .  S
C2379      C2380   1.407       .  A
C2379      C2384   1.408       .  A
C2380      C2381   1.409       .  A
C2381      C2382   1.407       .  A
C2381      N2388   1.428       .  S
C2382      H2387   1.080       .  S
C2382      C2383   1.407       .  A
C2383      C2384   1.416       .  A
C2384      N2385   1.439       .  S
N2385      O2389   1.263       .  A
N2385      O2390   1.262       .  A
N2388      O2391   1.262       .  A
N2388      O2392   1.260       .  A
C2393      H2400   1.083       .  S
C2393      C2394   1.406       .  A
C2393      C2398   1.414       .  A
C2394      C2395   1.418       .  A
C2395      C2396   1.415       .  A
C2395      N2402   1.442       .  S
C2396      H2401   1.082       .  S
C2396      C2397   1.405       .  A
C2397      C2398   1.415       .  A
C2398      N2399   1.439       .  S
N2399      O2403   1.262       .  A
N2399      O2404   1.262       .  A
N2402      O2405   1.262       .  A
N2402      O2406   1.263       .  A
C2407      H2414   1.082       .  S
C2407      C2408   1.408       .  A
C2407      C2412   1.413       .  A
C2408      C2409   1.403       .  A
C2409      C2410   1.410       .  A
C2409      N2416   1.434       .  S
C2410      H2415   1.083       .  S
C2410      C2411   1.413       .  A
C2411      C2412   1.417       .  A
C2412      N2413   1.443       .  S
N2413      O2417   1.263       .  A
N2413      O2418   1.263       .  A
N2416      O2419   1.263       .  A
N2416      O2420   1.259       .  A
C2421      H2428   1.083       .  S
C2421      C2422   1.407       .  A
C2421      C2426   1.418       .  A
C2422      C2423   1.420       .  A
C2423      C2424   1.413       .  A
C2423      N2430   1.429       .  S
C2424      H2429   1.083       .  S
C2424      C2425   1.406       .  A
C2425      C2426   1.423       .  A
C2426      N2427   1.437       .  S
N2427      O2431   1.263       .  A
N2427      O2432   1.262       .  A
N2430      O2433   1.262   1_655  A
N2430      O2434   1.262       .  A
C2435      H2442   1.085       .  S
C2435      C2436   1.394       .  A
C2435      C2440   1.408       .  A
C2436      C2437   1.424       .  A
C2437      C2438   1.408       .  A
C2437      N2444   1.430       .  S
C2438      H2443   1.085       .  S
C2438      C2439   1.398       .  A
C2439      C2440   1.429       .  A
C2440      N2441   1.432       .  S
N2441      O2445   1.261       .  A
N2441      O2446   1.260       .  A
N2444      O2447   1.261       .  A
N2444      O2448   1.262       .  A
C2449      H2456   1.083       .  S
C2449      C2450   1.404       .  A
C2449      C2454   1.415       .  A
C2450      C2451   1.425       .  A
C2451      C2452   1.413       .  A
C2451      N2458   1.442       .  S
C2452      H2457   1.083       .  S
C2452      C2453   1.402       .  A
C2453      C2454   1.416       .  A
C2454      N2455   1.440       .  S
N2455      O2459   1.263       .  A
N2455      O2460   1.263       .  A
N2458      O2461   1.260       .  A
N2458      O2462   1.263       .  A
C2463      H2470   1.084       .  S
C2463      C2464   1.408       .  A
C2463      C2468   1.414   1_565  A
C2464      C2465   1.414       .  A
C2465      N2472   1.434       .  S
C2466      H2471   1.082       .  S
C2466      C2467   1.408       .  A
C2468      N2469   1.437       .  S
N2469      O2473   1.262       .  A
N2469      O2474   1.262       .  A
N2472      O2476   1.263       .  A
C2477      H2484   1.081       .  S
C2477      C2482   1.401       .  A
C2478      C2479   1.422       .  A
C2479      C2480   1.406       .  A
C2479      N2486   1.434       .  S
C2480      H2485   1.079       .  S
C2481      C2482   1.419       .  A
C2482      N2483   1.425       .  S
N2483      O2487   1.260       .  A
N2483      O2488   1.260       .  A
N2486      O2489   1.261       .  A
N2486      O2490   1.262       .  A
C2491      H2498   1.084       .  S
C2491      C2492   1.405       .  A
C2491      C2496   1.410       .  A
C2492      C2493   1.420       .  A
C2493      C2494   1.416       .  A
C2493      N2500   1.442       .  S
C2494      H2499   1.081       .  S
C2494      C2495   1.409       .  A
C2495      C2496   1.418       .  A
C2496      N2497   1.440       .  S
N2497      O2501   1.262       .  A
N2497      O2502   1.263       .  A
N2500      O2503   1.262       .  A
N2500      O2504   1.263       .  A
C2505      H2512   1.081       .  S
C2505      C2506   1.390       .  A
C2505      C2510   1.380       .  A
C2506      C2507   1.407       .  A
C2507      C2508   1.392       .  A
C2507      N2514   1.439       .  S
C2508      H2513   1.079       .  S
C2508      C2509   1.407       .  A
C2509      C2510   1.412       .  A
C2510      N2511   1.422       .  S
N2511      O2515   1.250       .  A
N2511      O2516   1.263       .  A
N2514      O2517   1.263       .  A
N2514      O2518   1.263       .  A
C2519      H2526   1.084       .  S
C2519      C2520   1.403       .  A
C2519      C2524   1.395       .  A
C2520      C2521   1.403       .  A
C2521      C2522   1.391       .  A
C2521      N2528   1.441       .  S
C2522      H2527   1.085       .  S
C2522      C2523   1.404       .  A
C2523      C2524   1.411       .  A
C2524      N2525   1.450       .  S
N2525      O2529   1.262       .  A
N2525      O2530   1.263       .  A
N2528      O2531   1.262       .  A
N2528      O2532   1.262       .  A
C2533      H2540   1.081       .  S
C2533      C2534   1.409       .  A
C2533      C2538   1.410       .  A
C2534      C2535   1.415       .  A
C2535      C2536   1.411       .  A
C2535      N2542   1.437       .  S
C2536      H2541   1.081       .  S
C2536      C2537   1.410       .  A
C2537      C2538   1.420       .  A
C2538      N2539   1.438       .  S
N2539      O2543   1.263       .  A
N2539      O2544   1.261       .  A
N2542      O2545   1.262       .  A
N2542      O2546   1.262       .  A
C2547      H2554   1.078       .  S
C2547      C2548   1.411       .  A
C2547      C2552   1.410       .  A
C2548      C2549   1.418       .  A
C2549      C2550   1.407       .  A
C2549      N2556   1.433       .  S
C2550      H2555   1.079       .  S
C2550      C2551   1.408       .  A
C2551      C2552   1.418       .  A
C2552      N2553   1.437       .  S
N2553      O2557   1.262       .  A
N2553      O2558   1.263       .  A
N2556      O2559   1.261       .  A
N2556      O2560   1.262       .  A
C2561      H2568   1.083       .  S
C2561      C2562   1.404       .  A
C2561      C2566   1.411       .  A
C2562      C2563   1.419       .  A
C2563      C2564   1.407       .  A
C2563      N2570   1.445       .  S
C2564      H2569   1.083       .  S
C2564      C2565   1.404       .  A
C2565      C2566   1.423       .  A
C2566      N2567   1.449       .  S
N2567      O2571   1.261       .  A
N2567      O2572   1.261       .  A
N2570      O2573   1.261       .  A
N2570      O2574   1.263       .  A
C2575      H2582   1.084       .  S
C2575      C2576   1.412       .  A
C2575      C2580   1.421   1_554  A
C2577      C2578   1.411       .  A
C2577      N2584   1.443       .  S
C2578      H2583   1.080       .  S
C2578      C2579   1.407   1_554  A
C2580      N2581   1.442       .  S
N2581      O2585   1.263       .  A
N2581      O2586   1.261       .  A
N2584      O2587   1.261       .  A
N2584      O2588   1.260       .  A
C2589      C2590   1.406       .  A
C2590      C2591   1.418       .  A
C2591      C2592   1.414   1_654  A
C2591      N2598   1.433       .  S
C2592      H2597   1.082       .  S
C2593      C2594   1.420       .  A
C2594      N2595   1.424       .  S
N2595      O2599   1.263       .  A
N2595      O2600   1.259       .  A
N2598      O2601   1.262   1_655  A
N2598      O2602   1.262       .  A
C2603      H2610   1.083       .  S
C2603      C2604   1.400       .  A
C2603      C2608   1.412       .  A
C2604      C2605   1.418   1_556  A
C2605      C2606   1.403       .  A
C2605      N2612   1.425       .  S
C2606      H2611   1.084       .  S
C2606      C2607   1.397       .  A
C2607      C2608   1.420   1_554  A
C2608      N2609   1.438       .  S
N2609      O2613   1.263   1_556  A
N2609      O2614   1.261       .  A
N2612      O2615   1.263       .  A
N2612      O2616   1.255       .  A
