geometry optimzed in LAMMPS
_audit_creation_date              2020-11-30 
_audit_creation_method            'lammps2cif' 
_symmetry_space_group_name_H-M    'P1' 
_symmetry_Int_Tables_number       1 
_symmetry_cell_setting            triclinic 
loop_ 
_symmetry_equiv_pos_as_xyz 
  x,y,z 
_cell_length_a                    47.2236137 
_cell_length_b                    42.82892554127455 
_cell_length_c                    44.44764266507031 
_cell_angle_alpha                 90.03814200306577 
_cell_angle_beta                  90.05193600403415 
_cell_angle_gamma                 90.18293523420324 
loop_ 
_atom_site_label 
_atom_site_type_symbol 
_atom_site_fract_x 
_atom_site_fract_y 
_atom_site_fract_z 
_atom_site_charge 
N1          N  0.50059814  0.04444107  0.49736694    -0.36300
N2          N  0.50152358  0.99657420  0.44992301    -0.56800
N3          N  0.49631730  0.94816664  0.49549105    -0.36300
N4          N  0.49835465  0.99576810  0.54298247    -0.56800
C5          C  0.50677090  0.06253343  0.47321076     0.27300
C6          C  0.50418578  0.06210896  0.52244977     0.27300
C7          C  0.50033290  0.93027138  0.47075004     0.27300
C8          C  0.50081700  0.92982409  0.51979422     0.27300
C9          C  0.50087179  0.02237696  0.43238056     0.35900
C10         C  0.49725762  0.97179103  0.43149156     0.35900
C11         C  0.49568834  0.02078666  0.56138406     0.35900
C12         C  0.49519408  0.97005623  0.56033672     0.35900
C13         C  0.51386949  0.09229153  0.48305987    -0.21600
C14         C  0.51216821  0.09205485  0.51400399    -0.21600
C15         C  0.50695825  0.90006836  0.47943215    -0.21600
C16         C  0.50734394  0.89979872  0.51033151    -0.21600
C17         C  0.49670602  0.01382617  0.40257696    -0.22600
C18         C  0.49434205  0.98185663  0.40203977    -0.22600
C19         C  0.49113240  0.01080958  0.59068684    -0.22600
C20         C  0.49082880  0.97875007  0.59001259    -0.22600
C21         C  0.50497660  0.05350850  0.44246946    -0.18000
C22         C  0.49946200  0.05239711  0.55265618    -0.18000
C23         C  0.49796857  0.93883438  0.55028959    -0.18000
C24         C  0.49744256  0.94008162  0.44052689    -0.18000
H25         H  0.51950223  0.11225091  0.46936411     0.14900
H26         H  0.51625485  0.11182736  0.52855857     0.14900
H27         H  0.51118434  0.88024899  0.46501062     0.14900
H28         H  0.51177493  0.87965218  0.52423295     0.14900
H29         H  0.49551290  0.02902887  0.38317548     0.13200
H30         H  0.49109500  0.96763423  0.38218417     0.13200
H31         H  0.48885858  0.02506272  0.61064516     0.13200
H32         H  0.48812146  0.96357486  0.60927185     0.13200
H33         H  0.49182797  0.02229283  0.49657430     0.26500
H34         H  0.48811670  0.97057167  0.49576123     0.26500
N35         N  0.94968530  0.49775590  0.50879079    -0.36300
N36         N  0.99852466  0.45696788  0.50712128    -0.56800
N37         N  0.03461446  0.51158351  0.50045637    -0.36300
N38         N  0.98531807  0.55230602  0.50341392    -0.56800
C39         C  0.93763545  0.47034061  0.51674083     0.27300
C40         C  0.93061660  0.52046823  0.51444741     0.27300
C41         C  0.05432030  0.48930384  0.50552144     0.27300
C42         C  0.04735806  0.53965280  0.50430256     0.27300
C43         C  0.97787719  0.43522641  0.50449278     0.35900
C44         C  0.02314020  0.44252860  0.50059162     0.35900
C45         C  0.95992439  0.56610618  0.49925505     0.35900
C46         C  0.00520434  0.57371448  0.49620563     0.35900
C47         C  0.91059714  0.47571360  0.52775539    -0.21600
C48         C  0.90615640  0.50727507  0.52628048    -0.21600
C49         C  0.08003284  0.50336536  0.51228659    -0.21600
C50         C  0.07567391  0.53510957  0.51145721    -0.21600
C51         C  0.98943345  0.40664502  0.49673633    -0.22600
C52         C  0.01818148  0.41124199  0.49437124    -0.22600
C53         C  0.96364047  0.59668872  0.48988890    -0.22600
C54         C  0.99236803  0.60156152  0.48804332    -0.22600
C55         C  0.94902439  0.44052654  0.51082912    -0.18000
C56         C  0.93361299  0.55210219  0.50602842    -0.18000
C57         C  0.03470018  0.56910343  0.49903704    -0.18000
C58         C  0.05013244  0.45674595  0.50230082    -0.18000
H59         H  0.89509724  0.45870014  0.53504272     0.14900
H60         H  0.88661672  0.51877383  0.53227651     0.14900
H61         H  0.09999965  0.49196676  0.51687117     0.14900
H62         H  0.09174460  0.55275358  0.51518584     0.14900
H63         H  0.97836905  0.38471806  0.49354939     0.13200
H64         H  0.03366572  0.39354222  0.48892431     0.13200
H65         H  0.94740298  0.61385951  0.48543069     0.13200
H66         H  0.00258352  0.62326017  0.48179997     0.13200
H67         H  0.96783500  0.50022737  0.49587741     0.26500
H68         H  0.01465637  0.50791864  0.49132662     0.26500
N69         N  0.55462568  0.49903937  0.00412999    -0.36300
N70         N  0.51067910  0.49496573  0.05016172    -0.56800
N71         N  0.46700594  0.49211148  0.00272137    -0.36300
N72         N  0.51100818  0.49402634  0.95667595    -0.56800
C73         C  0.57101832  0.49582851  0.02903027     0.27300
C74         C  0.57120554  0.49361842  0.97980382     0.27300
C75         C  0.45028876  0.48841529  0.02725341     0.27300
C76         C  0.45043357  0.48965443  0.97784560     0.27300
C77         C  0.53327793  0.49996775  0.06840361     0.35900
C78         C  0.48728431  0.49547544  0.06779879     0.35900
C79         C  0.53426310  0.49742776  0.93915562     0.35900
C80         C  0.48811721  0.49624648  0.93835612     0.35900
C81         C  0.59851358  0.48901574  0.02034705    -0.21600
C82         C  0.59862322  0.48752956  0.98940252    -0.21600
C83         C  0.42258965  0.48360695  0.01778867    -0.21600
C84         C  0.42267491  0.48447593  0.98676922    -0.21600
C85         C  0.52420825  0.50325997  0.09787624    -0.22600
C86         C  0.49522769  0.50034153  0.09752046    -0.22600
C87         C  0.52610730  0.50132609  0.90941841    -0.22600
C88         C  0.49700512  0.50065200  0.90892021    -0.22600
C89         C  0.56212484  0.49952571  0.05936047    -0.18000
C90         C  0.56279029  0.49540409  0.94913177    -0.18000
C91         C  0.45929961  0.49335055  0.94739843    -0.18000
C92         C  0.45883641  0.49101325  0.05792432    -0.18000
H93         H  0.61667471  0.48544767  0.03479189     0.14900
H94         H  0.61693831  0.48270256  0.97555651     0.14900
H95         H  0.40405610  0.48038896  0.03176921     0.14900
H96         H  0.40425719  0.48194829  0.97245452     0.14900
H97         H  0.53713988  0.50696149  0.11768897     0.13200
H98         H  0.48160131  0.50156505  0.11704688     0.13200
H99         H  0.53970251  0.50418723  0.89001477     0.13200
H100        H  0.48392297  0.50286519  0.88903478     0.13200
H101        H  0.53410797  0.50749904  0.00362468     0.26500
H102        H  0.48812065  0.49825908  0.00306643     0.26500
N103        N  0.01551536  0.46463379  0.99697164    -0.36300
N104        N  0.01654898  0.51266108  0.95027898    -0.56800
N105        N  0.02140419  0.56077632  0.99633816    -0.36300
N106        N  0.01859364  0.51287054  0.04307127    -0.56800
C107        C  0.00851882  0.44715441  0.97262760     0.27300
C108        C  0.01014519  0.44724331  0.02180318     0.27300
C109        C  0.01629135  0.57859175  0.97173843     0.27300
C110        C  0.01645975  0.57868794  0.02091830     0.27300
C111        C  0.01740256  0.48701748  0.93252155     0.35900
C112        C  0.02151332  0.53753084  0.93225564     0.35900
C113        C  0.02101408  0.48750182  0.06099203     0.35900
C114        C  0.02335349  0.53812988  0.06064509     0.35900
C115        C  0.99935522  0.41797337  0.98210152    -0.21600
C116        C  0.00040299  0.41801089  0.01303731    -0.21600
C117        C  0.00859252  0.60837125  0.98083690    -0.21600
C118        C  0.00864075  0.60840975  0.01180071    -0.21600
C119        C  0.02286474  0.49565822  0.90302785    -0.22600
C120        C  0.02548136  0.52762213  0.90286211    -0.22600
C121        C  0.02739423  0.49671777  0.09014295    -0.22600
C122        C  0.02887721  0.52877287  0.08992085    -0.22600
C123        C  0.01129345  0.45618552  0.94205812    -0.18000
C124        C  0.01476467  0.45648910  0.05210428    -0.18000
C125        C  0.02008310  0.56948825  0.05132149    -0.18000
C126        C  0.01946221  0.56912626  0.94133266    -0.18000
H127        H  0.99269599  0.39854437  0.96817828     0.14900
H128        H  0.99472393  0.39857394  0.02738493     0.14900
H129        H  0.00351878  0.62812652  0.96667620     0.14900
H130        H  0.00363390  0.62819310  0.02597515     0.14900
H131        H  0.02428146  0.48056898  0.88354452     0.13200
H132        H  0.02913751  0.54196766  0.88319921     0.13200
H133        H  0.02999503  0.48195846  0.10970156     0.13200
H134        H  0.03286088  0.54352697  0.10926024     0.13200
H135        H  0.02578925  0.48604160  0.99656616     0.26500
H136        H  0.03049644  0.53874872  0.99632948     0.26500
N137        N  0.55118175  0.99952962  0.00452523    -0.36300
N138        N  0.50950565  0.04862362  0.00730511    -0.56800
N139        N  0.46490046  0.00151452  0.00134469    -0.36300
N140        N  0.50679695  0.95250024  0.00046133    -0.56800
C141        C  0.56811201  0.02390487  0.01175868     0.27300
C142        C  0.56665346  0.97331836  0.00785989     0.27300
C143        C  0.44933246  0.02709075  0.00768988     0.27300
C144        C  0.44806861  0.97626468  0.00560787     0.27300
C145        C  0.53298931  0.06660831  0.00520029     0.35900
C146        C  0.48719728  0.06767342  0.00282604     0.35900
C147        C  0.52930395  0.93396155  0.99551860     0.35900
C148        C  0.48362171  0.93484415  0.99531691     0.35900
C149        C  0.59481211  0.01302489  0.01940418    -0.21600
C150        C  0.59388978  0.98114813  0.01698346    -0.21600
C151        C  0.42205571  0.01802733  0.01547676    -0.21600
C152        C  0.42130907  0.98596142  0.01431025    -0.21600
C153        C  0.52557706  0.09742161  0.00012476    -0.22600
C154        C  0.49652595  0.09811788  0.99862699    -0.22600
C155        C  0.52042851  0.90421562  0.98743346    -0.22600
C156        C  0.49138912  0.90475080  0.98739753    -0.22600
C157        C  0.56093755  0.05574662  0.00903767    -0.18000
C158        C  0.55760384  0.94276599  0.00070333    -0.18000
C159        C  0.45566287  0.94487303  0.00011869    -0.18000
C160        C  0.45852705  0.05837924  0.00460679    -0.18000
H161        H  0.61335026  0.02656064  0.02541093     0.14900
H162        H  0.61158939  0.96566564  0.02080678     0.14900
H163        H  0.40436886  0.03290082  0.02114772     0.14900
H164        H  0.40297619  0.97149271  0.01887318     0.14900
H165        H  0.53960468  0.11732675  0.99795427     0.13200
H166        H  0.48374990  0.11875137  0.99520731     0.13200
H167        H  0.53348291  0.88406717  0.98273396     0.13200
H168        H  0.47760322  0.88512941  0.98258756     0.13200
H169        H  0.53161111  0.00087927  0.99410163     0.26500
H170        H  0.48466567  0.00163819  0.99122003     0.26500
O171        O  0.73042901  0.78453121  0.82043129    -0.80600
O172        O  0.77007106  0.68377769  0.72964271    -0.65300
O173        O  0.76555504  0.75814009  0.77651103    -1.11900
C174        C  0.69770299  0.78729978  0.70217128     1.06300
O175        O  0.77340139  0.71162495  0.68780674    -0.78500
O176        O  0.76755271  0.77361085  0.68627303    -0.66000
Ni177      Ni  0.76189929  0.75619710  0.81925665     1.34900
C178        C  0.77418490  0.79590161  0.70370700     0.85100
O179        O  0.79809223  0.70356936  0.77807149    -0.79000
O180        O  0.79352052  0.72814995  0.82243102    -0.89300
C181        C  0.77662143  0.68625419  0.70212380     0.84600
O182        O  0.73565343  0.72231294  0.82172327    -0.67500
O183        O  0.70992888  0.76726902  0.68540342    -0.86800
C184        C  0.72918314  0.70006923  0.80409678     0.85500
C185        C  0.80576582  0.70861978  0.80515173     1.07000
H186        H  0.72057899  0.72659143  0.73514318     0.38800
O187        O  0.73782892  0.73809283  0.73124772    -1.09400
O188        O  0.76328136  0.79926445  0.72976340    -0.66100
Ni189      Ni  0.73557128  0.77615036  0.75323921     1.26300
O190        O  0.74016406  0.69735059  0.77804687    -0.66300
O191        O  0.70537470  0.79290246  0.72917575    -0.78600
C192        C  0.72507009  0.80893676  0.80523065     0.84800
O193        O  0.73274706  0.81210512  0.77812598    -0.65800
Ni194      Ni  0.74165569  0.73959864  0.68866056     1.27400
Ni195      Ni  0.76777040  0.72013735  0.75437480     1.26100
H196        H  0.78279478  0.76964514  0.77264244     0.39400
O197        O  0.28137540  0.67489467  0.76635769    -0.80600
O198        O  0.20584392  0.78360993  0.71643231    -0.65300
O199        O  0.26568381  0.72422654  0.72695450    -1.11900
C200        C  0.30121178  0.79780337  0.79650306     1.06300
O201        O  0.23612583  0.82302514  0.71412707    -0.78500
O202        O  0.29114364  0.81055294  0.71812592    -0.66000
Ni203      Ni  0.25806701  0.68055792  0.73075525     1.34900
C204        C  0.31009531  0.78976727  0.71661394     0.85100
O205        O  0.21764121  0.72973419  0.68991614    -0.79000
O206        O  0.23416578  0.68097997  0.69539439    -0.89300
C207        C  0.21188601  0.81137894  0.70858800     0.84600
O208        O  0.22585713  0.68393562  0.75620137    -0.67500
O209        O  0.28913729  0.81770863  0.77948473    -0.86800
C210        C  0.20805546  0.70527972  0.76198357     0.85500
C211        C  0.21874770  0.70117898  0.68209507     1.07000
H212        H  0.24078114  0.77436585  0.77138913     0.38800
O213        O  0.25278977  0.77493630  0.75380670    -1.09400
O214        O  0.30975691  0.76509098  0.73261007    -0.66100
Ni215      Ni  0.28289739  0.74583824  0.75992144     1.26300
O216        O  0.20974965  0.73259096  0.75060759    -0.66300
O217        O  0.29884177  0.76850295  0.79269614    -0.78600
C218        C  0.30447852  0.68747592  0.77502775     0.84800
O219        O  0.31124188  0.71476988  0.76662655    -0.65800
Ni220      Ni  0.26225645  0.81770029  0.74695193     1.27400
Ni221      Ni  0.23481399  0.75269984  0.72186454     1.26100
H222        H  0.27769245  0.72637320  0.70948588     0.39400
O223        O  0.77272960  0.28182684  0.68671904    -0.80600
O224        O  0.73599326  0.18173885  0.78068116    -0.65300
O225        O  0.73946958  0.25538279  0.73263540    -1.11900
C226        C  0.80781153  0.28987666  0.80412209     1.06300
O227        O  0.73651815  0.20864053  0.82352204    -0.78500
O228        O  0.73738740  0.27090221  0.82129048    -0.66000
Ni229      Ni  0.74162364  0.25327719  0.68984007     1.34900
C230        C  0.73150712  0.29344667  0.80389985     0.85100
O231        O  0.70739270  0.19963586  0.73223341    -0.79000
O232        O  0.71057952  0.22478785  0.68808806    -0.89300
C233        C  0.72941376  0.18480189  0.80815015     0.84600
O234        O  0.76787093  0.21984922  0.68722181    -0.67500
O235        O  0.79561441  0.27102663  0.82224916    -0.86800
C236        C  0.77534881  0.19798277  0.70474022     0.85500
C237        C  0.69959245  0.20421746  0.70509513     1.07000
H238        H  0.78580019  0.22503906  0.77342324     0.38800
O239        O  0.76860386  0.23651731  0.77744972    -1.09400
O240        O  0.74337810  0.29727996  0.77839577    -0.66100
Ni241      Ni  0.77023286  0.27404317  0.75428503     1.26300
O242        O  0.76537641  0.19501933  0.73124915    -0.66300
O243        O  0.80110046  0.29180139  0.77645953    -0.78600
C244        C  0.77810336  0.30669192  0.70111759     0.84800
O245        O  0.77209969  0.30975181  0.72871241    -0.65800
Ni246      Ni  0.76599098  0.23973853  0.82028088     1.27400
Ni247      Ni  0.73799618  0.21760010  0.75530633     1.26100
H248        H  0.72246740  0.26671035  0.73705323     0.39400
O249        O  0.29023391  0.22322052  0.69063097    -0.80600
O250        O  0.19249817  0.26685146  0.77177831    -0.65300
O251        O  0.26152604  0.26576114  0.72751562    -1.11900
C252        C  0.29365366  0.20568676  0.81088594     1.06300
O253        O  0.21607179  0.27965049  0.81302943    -0.78500
O254        O  0.27260058  0.27946313  0.81863917    -0.66000
Ni255      Ni  0.26268282  0.25614393  0.68592541     1.34900
C256        C  0.29157459  0.28960593  0.80092551     0.85100
O257        O  0.20787684  0.29221280  0.71924852    -0.79000
O258        O  0.23532521  0.28831847  0.67792387    -0.89300
C259        C  0.19310096  0.27836542  0.79813191     0.84600
O260        O  0.23353344  0.22517641  0.68454352    -0.67500
O261        O  0.27212939  0.21606511  0.82501292    -0.86800
C262        C  0.21398386  0.21644797  0.70228424     0.85500
C263        C  0.21390485  0.29914329  0.69205024     1.07000
H264        H  0.23830480  0.21818961  0.77330748     0.38800
O265        O  0.24581473  0.23908429  0.77551026    -1.09400
O266        O  0.29657553  0.27674961  0.77541593    -0.66100
Ni267      Ni  0.28128422  0.23962844  0.75521156     1.26300
O268        O  0.21016711  0.22925164  0.72790185    -0.66300
O269        O  0.29993819  0.21336641  0.78397349    -0.78600
C270        C  0.31278582  0.22241951  0.70637210     0.84800
O271        O  0.31472623  0.23766194  0.73090487    -0.65800
Ni272      Ni  0.24432404  0.24764446  0.81726263     1.27400
Ni273      Ni  0.22619254  0.26562755  0.74799277     1.26100
H274        H  0.26911621  0.28666788  0.72925962     0.39400
O275        O  0.78189926  0.72614159  0.31011826    -0.80600
O276        O  0.73564335  0.81764576  0.21909609    -0.65300
O277        O  0.74339834  0.74532271  0.26761074    -1.11900
C278        C  0.81047353  0.71288541  0.19469084     1.06300
O279        O  0.73652044  0.79047197  0.17629717    -0.78500
O280        O  0.73778454  0.72811595  0.18051162    -0.66000
Ni281      Ni  0.74688041  0.74851282  0.30989250     1.34900
C282        C  0.73348142  0.70539005  0.19824723     0.85100
O283        O  0.70908464  0.79870638  0.26908691    -0.79000
O284        O  0.71215861  0.77132912  0.31202441    -0.89300
C285        C  0.73006201  0.81464282  0.19135672     0.84600
O286        O  0.76812192  0.78617207  0.31282130    -0.67500
O287        O  0.79600074  0.72971769  0.17682007    -0.86800
C288        C  0.77575269  0.80704837  0.29431836     0.85500
C289        C  0.69990204  0.79137697  0.29530617     1.07000
H290        H  0.78714927  0.77690524  0.22472315     0.38800
O291        O  0.77026588  0.76448855  0.22169907    -1.09400
O292        O  0.74727763  0.70197441  0.22281479    -0.66100
Ni293      Ni  0.77412056  0.72748334  0.24556654     1.26300
O294        O  0.76726369  0.80717164  0.26708655    -0.66300
O295        O  0.80507926  0.71107341  0.22272309    -0.78600
C296        C  0.78465066  0.69859772  0.30005035     0.84800
O297        O  0.77825914  0.69279591  0.27280941    -0.65800
Ni298      Ni  0.76602616  0.75993139  0.17922701     1.27400
Ni299      Ni  0.73978059  0.78241495  0.24476140     1.26100
H300        H  0.72658256  0.73297531  0.26395791     0.39400
O301        O  0.23128187  0.82698169  0.27773305    -0.80600
O302        O  0.30729589  0.71412229  0.22828055    -0.65300
O303        O  0.25039754  0.77638451  0.24225535    -1.11900
C304        C  0.20647132  0.70105631  0.30198074     1.06300
O305        O  0.27787300  0.67353798  0.22725119    -0.78500
O306        O  0.22539436  0.69620111  0.22184145    -0.66000
Ni307      Ni  0.26311491  0.81773617  0.25236416     1.34900
C308        C  0.20551567  0.71591131  0.22330466     0.85100
O309        O  0.29742339  0.76955287  0.20477312    -0.79000
O310        O  0.29621344  0.81591172  0.22714135    -0.89300
C311        C  0.30134482  0.68630661  0.22063531     0.84600
O312        O  0.28405450  0.80370158  0.28624985    -0.67500
O313        O  0.21504360  0.68266553  0.28144150    -0.86800
C314        C  0.30406866  0.78398748  0.28580787     0.85500
C315        C  0.30561721  0.79762799  0.20698025     1.07000
H316        H  0.27215160  0.72053195  0.28346926     0.38800
O317        O  0.26034670  0.72245919  0.26580535    -1.09400
O318        O  0.20449649  0.73693955  0.24377642    -0.66100
Ni319      Ni  0.23170615  0.75309142  0.27332093     1.26300
O320        O  0.30573417  0.76258626  0.26572961    -0.66300
O321        O  0.21482416  0.72908063  0.30416632    -0.78600
C322        C  0.20856338  0.81373435  0.28617544     0.84800
O323        O  0.20406461  0.78475312  0.28221697    -0.65800
Ni324      Ni  0.24727305  0.68147433  0.25468422     1.27400
Ni325      Ni  0.27953927  0.74586646  0.23550624     1.26100
H326        H  0.23854333  0.77766401  0.22457252     0.39400
O327        O  0.74662517  0.21923852  0.17830396    -0.80600
O328        O  0.77836531  0.32074572  0.27779800    -0.65300
O329        O  0.77483817  0.24943628  0.22585543    -1.11900
C330        C  0.70369370  0.21520307  0.29552666     1.06300
O331        O  0.77670402  0.29099360  0.31855272    -0.78500
O332        O  0.77007677  0.22969180  0.31706830    -0.66000
Ni333      Ni  0.77054182  0.25535252  0.18349694     1.34900
C334        C  0.78041682  0.21013726  0.29873425     0.85100
O335        O  0.80779510  0.30356009  0.22967824    -0.79000
O336        O  0.79496788  0.29166704  0.18264495    -0.89300
C337        C  0.78285116  0.31649895  0.30565982     0.84600
O338        O  0.73769175  0.28043182  0.18747869    -0.67500
O339        O  0.71265500  0.23656756  0.31306408    -0.86800
C340        C  0.73421853  0.30436420  0.20385987     0.85500
C341        C  0.81030458  0.30664438  0.20137365     1.07000
H342        H  0.72780503  0.27817301  0.26553229     0.38800
O343        O  0.74480479  0.26686880  0.27066659    -1.09400
O344        O  0.77252244  0.20810873  0.27137900    -0.66100
Ni345      Ni  0.74450965  0.22945030  0.24739588     1.26300
O346        O  0.75001628  0.31056251  0.22649836    -0.66300
O347        O  0.71438429  0.20997751  0.26971323    -0.78600
C348        C  0.73973764  0.19540580  0.19373344     0.84800
O349        O  0.74367276  0.19369277  0.22189777    -0.65800
Ni350      Ni  0.74478509  0.26389986  0.31349193     1.27400
Ni351      Ni  0.77628717  0.28597339  0.25060394     1.26100
H352        H  0.79219500  0.23794369  0.22882159     0.39400
N353        N  0.95263214  0.00094906  0.49880239    -0.36300
N354        N  0.99354852  0.00532393  0.54793288    -0.56800
N355        N  0.03938219  0.01364312  0.50343119    -0.36300
N356        N  0.99832183  0.00918826  0.45432602    -0.56800
C357        C  0.93466501  0.00262262  0.52262140     0.27300
C358        C  0.93709586  0.00577767  0.47351674     0.27300
C359        C  0.05499469  0.01160576  0.52903033     0.27300
C360        C  0.05751346  0.01215639  0.47968658     0.27300
C361        C  0.96995174  0.00073333  0.56475054     0.35900
C362        C  0.01566486  0.00734663  0.56727169     0.35900
C363        C  0.97614404  0.00741470  0.43505476     0.35900
C364        C  0.02207096  0.01155934  0.43737253     0.35900
C365        C  0.90740871  0.00796823  0.51220893    -0.21600
C366        C  0.90893874  0.01000443  0.48142194    -0.21600
C367        C  0.08343038  0.00961313  0.52141162    -0.21600
C368        C  0.08500028  0.00992675  0.49048430    -0.21600
C369        C  0.97712398  0.99983281  0.59497128    -0.22600
C370        C  0.00595060  0.00411364  0.59658328    -0.22600
C371        C  0.98586515  0.00871830  0.40566032    -0.22600
C372        C  0.01485013  0.01131023  0.40711594    -0.22600
C373        C  0.94179773  0.99938482  0.55356698    -0.18000
C374        C  0.94713853  0.00612921  0.44334081    -0.18000
C375        C  0.05029792  0.01271857  0.44849673    -0.18000
C376        C  0.04465730  0.01086619  0.55916478    -0.18000
H377        H  0.88830276  0.01047773  0.52540904     0.14900
H378        H  0.89120952  0.01432746  0.46656361     0.14900
H379        H  0.10128987  0.00758221  0.53656053     0.14900
H380        H  0.10428778  0.00834851  0.47744491     0.14900
H381        H  0.96301554  0.99684862  0.61394332     0.13200
H382        H  0.01835263  0.00456867  0.61707127     0.13200
H383        H  0.97336633  0.00807948  0.38524215     0.13200
H384        H  0.02898452  0.01267660  0.38800280     0.13200
H385        H  0.97372944  0.99433497  0.49953462     0.26500
H386        H  0.01780246  0.01765540  0.50241652     0.26500
C387        C  0.10682177  0.98518905  0.39602723     0.80500
N388        N  0.11394703  0.01236537  0.38230742    -0.77800
C389        C  0.10167467  0.03982230  0.38990926     0.83000
N390        N  0.08179003  0.04009274  0.41218547    -0.77700
C391        C  0.07381082  0.01285803  0.42589272     0.83100
N392        N  0.08621311  0.98540286  0.41749975    -0.79400
O393        O  0.21710052  0.27971491  0.19098793    -0.80600
O394        O  0.31446796  0.23432096  0.27309773    -0.65300
O395        O  0.24465041  0.23828790  0.22995564    -1.11900
C396        C  0.21625946  0.30260696  0.31148922     1.06300
O397        O  0.29170631  0.22462656  0.31547213    -0.78500
O398        O  0.23497971  0.22591594  0.31948860    -0.66000
Ni399      Ni  0.24344952  0.24566351  0.18783885     1.34900
C400        C  0.21427998  0.21887921  0.30252658     0.85100
O401        O  0.29661719  0.20776493  0.22237887    -0.79000
O402        O  0.26939098  0.21203215  0.18095814    -0.89300
C403        C  0.31405960  0.22313693  0.29956940     0.84600
O404        O  0.27339883  0.27552751  0.18536170    -0.67500
O405        O  0.23619860  0.28948135  0.32616918    -0.86800
C406        C  0.29335005  0.28401865  0.20270999     0.85500
C407        C  0.29008942  0.20029683  0.19549541     1.07000
H408        H  0.27172467  0.28598602  0.27428882     0.38800
O409        O  0.26276748  0.26583438  0.27678680    -1.09400
O410        O  0.20904734  0.23335080  0.27803562    -0.66100
Ni411      Ni  0.22713144  0.26757588  0.25643472     1.26300
O412        O  0.29777317  0.27130625  0.22826388    -0.66300
O413        O  0.21075218  0.29688727  0.28393904    -0.78600
C414        C  0.19429859  0.28080253  0.20609949     0.84800
O415        O  0.19331668  0.27034275  0.23283381    -0.65800
Ni416      Ni  0.26368487  0.25730628  0.31872207     1.27400
Ni417      Ni  0.28031759  0.23684455  0.25001882     1.26100
H418        H  0.23577603  0.21815373  0.23288193     0.39400
C419        C  0.98093696  0.40021805  0.10449220     0.80500
N420        N  0.98443904  0.42389756  0.08450780    -0.77800
C421        C  0.01099306  0.43264439  0.07597202     0.83000
N422        N  0.03395202  0.41837215  0.08833425    -0.77700
C423        C  0.03058790  0.39509135  0.10888719     0.83100
N424        N  0.00396256  0.38612523  0.11641617    -0.79400
C425        C  0.40282425  0.11368054  0.02830566     0.80500
N426        N  0.42362670  0.09190070  0.02926009    -0.77800
C427        C  0.43682043  0.08285027  0.00360163     0.83000
N428        N  0.42896786  0.09516297  0.97674639    -0.77700
C429        C  0.40888856  0.11769338  0.97569894     0.83100
N430        N  0.39627694  0.12706977  0.00153866    -0.79400
C431        C  0.53526934  0.10447505  0.38289466     0.80500
N432        N  0.53337371  0.08440381  0.40654118    -0.77800
C433        C  0.50765750  0.07817439  0.41917157     0.83000
N434        N  0.48399393  0.09254995  0.40842835    -0.77700
C435        C  0.48602252  0.11345915  0.38546366     0.83100
N436        N  0.51160328  0.11878549  0.37278167    -0.79400
C437        C  0.89114623  0.98215731  0.38872638     0.80500
N438        N  0.88130008  0.01046471  0.38041042    -0.77800
C439        C  0.89304270  0.03722600  0.39075368     0.83000
N440        N  0.91535716  0.03578999  0.41003632    -0.77700
C441        C  0.92554970  0.00749865  0.41895643     0.83100
N442        N  0.91332006  0.98065323  0.40836462    -0.79400
C443        C  0.62140302  0.10011160  0.97904877     0.80500
N444        N  0.63516595  0.10756756  0.00487783    -0.77800
C445        C  0.62412310  0.10063612  0.03224245     0.83000
N446        N  0.59867060  0.08583759  0.03378961    -0.77700
C447        C  0.58451635  0.07832397  0.00808871     0.83100
N448        N  0.59595931  0.08548187  0.98093025    -0.79400
C449        C  0.61176829  0.52795569  0.11895889     0.80500
N450        N  0.59413014  0.52774788  0.09460622    -0.77800
C451        C  0.58417772  0.50006995  0.08341146     0.83000
N452        N  0.59298848  0.47268080  0.09579317    -0.77700
C453        C  0.61088495  0.47280459  0.11978486     0.83100
N454        N  0.61964338  0.50043970  0.13147917    -0.79400
C455        C  0.89376715  0.38487526  0.53433650     0.80500
N456        N  0.91734585  0.40309027  0.53525006    -0.77800
C457        C  0.92894973  0.41419390  0.50943589     0.83000
N458        N  0.91661125  0.40741298  0.48262405    -0.77700
C459        C  0.89293472  0.38943364  0.48136647     0.83100
N460        N  0.88177290  0.37805927  0.50731701    -0.79400
C461        C  0.40957891  0.51751445  0.11784217     0.80500
N462        N  0.39969795  0.48976106  0.12834559    -0.77800
C463        C  0.40754957  0.46230690  0.11554395     0.83000
N464        N  0.42606866  0.46272068  0.09201223    -0.77700
C465        C  0.43634155  0.49042859  0.08138900     0.83100
N466        N  0.42771697  0.51772799  0.09410443    -0.79400
C467        C  0.99174457  0.62436461  0.10865560     0.80500
N468        N  0.01600130  0.63884726  0.11765138    -0.77800
C469        C  0.04155861  0.63086359  0.10597652     0.83000
N470        N  0.04281459  0.60836111  0.08442140    -0.77700
C471        C  0.01875120  0.59393472  0.07487606     0.83100
N472        N  0.99338224  0.60191382  0.08706744    -0.79400
C473        C  0.40438237  0.88695489  0.02903954     0.80500
N474        N  0.39128835  0.87804607  0.00327877    -0.77800
C475        C  0.39932956  0.88997642  0.97640911     0.83000
N476        N  0.42068844  0.91121136  0.97525293    -0.77700
C477        C  0.43331713  0.92093870  0.00107907     0.83100
N478        N  0.42533333  0.90864744  0.02791464    -0.79400
C479        C  0.52059960  0.88372887  0.38203333     0.80500
N480        N  0.49587643  0.86873577  0.37591372    -0.77800
C481        C  0.47153089  0.87683130  0.39006029     0.83000
N482        N  0.47184755  0.90029378  0.41070702    -0.77700
C483        C  0.49651416  0.91556421  0.41697444     0.83100
N484        N  0.52078728  0.90706670  0.40279139    -0.79400
C485        C  0.08495555  0.63354349  0.51625173     0.80500
N486        N  0.08946712  0.64506387  0.48824763    -0.77800
C487        C  0.07674759  0.63212262  0.46388704     0.83000
N488        N  0.05870111  0.60776412  0.46759020    -0.77700
C489        C  0.05341880  0.59647515  0.49554109     0.83100
N490        N  0.06688740  0.60901237  0.51978254    -0.79400
C491        C  0.61425848  0.89275339  0.97158428     0.80500
N492        N  0.59128329  0.91152052  0.97254053    -0.77800
C493        C  0.57925307  0.91852647  0.99932878     0.83000
N494        N  0.59065419  0.90758085  0.02521072    -0.77700
C495        C  0.61393701  0.88920005  0.02446896     0.83100
N496        N  0.62551561  0.88166067  0.99749539    -0.79400
C497        C  0.10574325  0.40301499  0.52938217     0.80500
N498        N  0.11751612  0.39372607  0.50301480    -0.77800
C499        C  0.10869654  0.40583106  0.47638824     0.83000
N500        N  0.08729696  0.42701736  0.47621330    -0.77700
C501        C  0.07521175  0.43624072  0.50253504     0.83100
N502        N  0.08471448  0.42453068  0.52908327    -0.79400
C503        C  0.97832723  0.40267394  0.88581651     0.80500
N504        N  0.98139749  0.42518492  0.90727918    -0.77800
C505        C  0.00760717  0.43180026  0.91866190     0.83000
N506        N  0.03056363  0.41564175  0.90882758    -0.77700
C507        C  0.02733361  0.39237440  0.88833101     0.83100
N508        N  0.00130659  0.38614628  0.87705987    -0.79400
C509        C  0.09396149  0.98240073  0.61839923     0.80500
N510        N  0.10367049  0.00979403  0.62987632    -0.77800
C511        C  0.09515987  0.03771527  0.61866698     0.83000
N512        N  0.07657096  0.03813637  0.59514263    -0.77700
C513        C  0.06592945  0.01078145  0.58395481     0.83100
N514        N  0.07475605  0.98306241  0.59559918    -0.79400
C515        C  0.52623578  0.10964934  0.60910520     0.80500
N516        N  0.52534249  0.08873502  0.58604453    -0.77800
C517        C  0.50008858  0.07646826  0.57684322     0.83000
N518        N  0.47569227  0.08489594  0.59114965    -0.77700
C519        C  0.47666516  0.10501016  0.61489479     0.83100
N520        N  0.50191216  0.11709311  0.62342950    -0.79400
C521        C  0.41178506  0.52529019  0.88792830     0.80500
N522        N  0.40105122  0.49857428  0.87602303    -0.77800
C523        C  0.40764952  0.47012440  0.88740156     0.83000
N524        N  0.42553766  0.46846223  0.91152554    -0.77700
C525        C  0.43707809  0.49510044  0.92344411     0.83100
N526        N  0.42997506  0.52345205  0.91164801    -0.79400
C527        C  0.88318849  0.96911695  0.60206779     0.80500
N528        N  0.90698739  0.96987242  0.58465039    -0.77800
C529        C  0.91802543  0.99793113  0.57568266     0.83000
N530        N  0.90568546  0.02496414  0.58505650    -0.77700
C531        C  0.88218105  0.02424594  0.60273136     0.83100
N532        N  0.87086028  0.99626095  0.61035681    -0.79400
C533        C  0.98964853  0.62599665  0.88695106     0.80500
N534        N  0.99177974  0.60377305  0.90862610    -0.77800
C535        C  0.01761536  0.59334064  0.91754037     0.83000
N536        N  0.04147246  0.60485601  0.90428303    -0.77700
C537        C  0.03960076  0.62714897  0.88248831     0.83100
N538        N  0.01357837  0.63723311  0.87401228    -0.79400
C539        C  0.52538119  0.88169767  0.60560308     0.80500
N540        N  0.52429283  0.90497233  0.58491106    -0.77800
C541        C  0.49899499  0.91387060  0.57317604     0.83000
N542        N  0.47478384  0.89917300  0.58183350    -0.77700
C543        C  0.47575726  0.87554011  0.60221071     0.83100
N544        N  0.50115548  0.86671945  0.61364293    -0.79400
C545        C  0.61640190  0.51994092  0.89233289     0.80500
N546        N  0.62503809  0.49168201  0.88201665    -0.77800
C547        C  0.61466256  0.46475601  0.89372189     0.83000
N548        N  0.59485539  0.46597156  0.91585845    -0.77700
C549        C  0.58532653  0.49410791  0.92587025     0.83100
N550        N  0.59628279  0.52100851  0.91425210    -0.79400
C551        C  0.86609438  0.58935507  0.52698187     0.80500
N552        N  0.89274431  0.57778574  0.52889763    -0.77800
C553        C  0.90763101  0.57092317  0.50369574     0.83000
N554        N  0.89598689  0.57614588  0.47623837    -0.77700
C555        C  0.86923892  0.58744230  0.47385540     0.83100
N556        N  0.85435776  0.59388282  0.49934152    -0.79400
C557        C  0.19494455  0.36241538  0.36925801    -0.01700
C558        C  0.16537614  0.35804696  0.37050581     0.06900
C559        C  0.15218400  0.33867836  0.34917154    -0.07700
C560        C  0.16825181  0.32219464  0.32793012     0.04400
C561        C  0.19811796  0.32467582  0.32828219    -0.14900
C562        C  0.21104391  0.34559586  0.34842102    -0.08200
C563        C  0.14868656  0.37004475  0.39632745     0.05300
C564        C  0.14193328  0.40186908  0.39810026    -0.09300
C565        C  0.12819532  0.41404569  0.42355461     0.00300
C566        C  0.12137857  0.39419525  0.44795213     0.00200
C567        C  0.12792445  0.36228947  0.44581113    -0.12900
C568        C  0.14121060  0.35011363  0.42027695     0.00600
C569        C  0.12274722  0.44716637  0.42466166     0.39900
C570        C  0.14765446  0.31716799  0.41944546     0.36500
C571        C  0.20940623  0.38254176  0.39036677     0.36300
C572        C  0.15376736  0.30094989  0.30784318     0.37000
N573        N  0.11843618  0.47373954  0.42545864    -0.43800
N574        N  0.15275812  0.29076900  0.41865271    -0.44200
N575        N  0.14213872  0.28391742  0.29177967    -0.41600
N576        N  0.22103159  0.39873004  0.40721432    -0.43000
H577        H  0.23393256  0.34782661  0.34869597     0.13200
H578        H  0.12943319  0.33526873  0.35010542     0.09600
H579        H  0.14789516  0.41728360  0.37980760     0.10700
H580        H  0.12269520  0.34674173  0.46423180     0.16500
C581        C  0.38007736  0.40393375  0.17286461    -0.01700
C582        C  0.36880855  0.37995440  0.15463100     0.06900
C583        C  0.37226834  0.38204887  0.12324575    -0.07700
C584        C  0.38598373  0.40784221  0.10997655     0.04400
C585        C  0.39621235  0.43248895  0.12821565    -0.14900
C586        C  0.39344742  0.42981178  0.15963096    -0.08200
C587        C  0.35024665  0.35490070  0.16747865     0.05300
C588        C  0.32124877  0.35576708  0.16082231    -0.09300
C589        C  0.30240307  0.33371440  0.17283401     0.00300
C590        C  0.31243964  0.30960456  0.19189414     0.00200
C591        C  0.34149498  0.30906175  0.19900919    -0.12900
C592        C  0.36036912  0.33129124  0.18690164     0.00600
C593        C  0.27267698  0.33721560  0.16594677     0.39900
C594        C  0.39008365  0.32891521  0.19411824     0.36500
C595        C  0.37689100  0.40330693  0.20515822     0.36300
C596        C  0.38749538  0.40941407  0.07757582     0.37000
N597        N  0.24887804  0.34017005  0.16043617    -0.43800
N598        N  0.41388615  0.32692939  0.20000617    -0.44200
N599        N  0.38866599  0.41069794  0.05159725    -0.41600
N600        N  0.37441570  0.40267072  0.23105053    -0.43000
H601        H  0.40129739  0.44838424  0.17396883     0.13200
H602        H  0.36339763  0.36391439  0.10900318     0.09600
H603        H  0.31319425  0.37416806  0.14642749     0.10700
H604        H  0.34963184  0.29076709  0.21343697     0.16500
C605        C  0.38451266  0.17984965  0.30239354    -0.01700
C606        C  0.38722744  0.17305253  0.33329370     0.06900
C607        C  0.36601882  0.18275576  0.35310957    -0.07700
C608        C  0.34226710  0.19905009  0.34280402     0.04400
C609        C  0.33935606  0.20630159  0.31174400    -0.14900
C610        C  0.36081832  0.19640210  0.29190555    -0.08200
C611        C  0.41246351  0.15695272  0.34588116     0.05300
C612        C  0.43843359  0.17280276  0.34632377    -0.09300
C613        C  0.46238007  0.15944078  0.35966042     0.00300
C614        C  0.46063667  0.12935106  0.37292314     0.00200
C615        C  0.43446030  0.11364622  0.37265856    -0.12900
C616        C  0.41054246  0.12711680  0.35918407     0.00600
C617        C  0.48814446  0.17774419  0.36019979     0.39900
C618        C  0.38440568  0.10958046  0.35846706     0.36500
C619        C  0.40537570  0.16921835  0.28101197     0.36300
C620        C  0.32160217  0.20818201  0.36503350     0.37000
N621        N  0.50878366  0.19239290  0.36059177    -0.43800
N622        N  0.36344241  0.09553765  0.35772434    -0.44200
N623        N  0.30509642  0.21525879  0.38299935    -0.41600
N624        N  0.42207901  0.16048995  0.26395229    -0.43000
H625        H  0.35892435  0.20112220  0.26804808     0.13200
H626        H  0.36819020  0.17774621  0.37692938     0.09600
H627        H  0.43985283  0.19599455  0.33662323     0.10700
H628        H  0.43280603  0.09047903  0.38234118     0.16500
C629        C  0.38293059  0.12029420  0.11084058    -0.01700
C630        C  0.35623498  0.13486507  0.10934470     0.06900
C631        C  0.34485466  0.14233830  0.08113787    -0.07700
C632        C  0.35920933  0.13531028  0.05459840     0.04400
C633        C  0.38631735  0.12122469  0.05586402    -0.14900
C634        C  0.39770353  0.11367070  0.08425814    -0.08200
C635        C  0.34051661  0.14518367  0.13650330     0.05300
C636        C  0.35365255  0.16639890  0.15618138    -0.09300
C637        C  0.33785876  0.18273905  0.17758393     0.00300
C638        C  0.30828251  0.17815420  0.17920752     0.00200
C639        C  0.29550837  0.15521021  0.16118128    -0.12900
C640        C  0.31139351  0.13848564  0.14014517     0.00600
C641        C  0.35202828  0.20645956  0.19520014     0.39900
C642        C  0.29705772  0.11573041  0.12151434     0.36500
C643        C  0.39547979  0.11173245  0.13929392     0.36300
C644        C  0.34489310  0.14224162  0.02665835     0.37000
N645        N  0.36339655  0.22553497  0.20920234    -0.43800
N646        N  0.28552431  0.09764263  0.10647753    -0.44200
N647        N  0.33324631  0.14775554  0.00437108    -0.41600
N648        N  0.40556561  0.10497845  0.16211144    -0.43000
H649        H  0.41832408  0.10272489  0.08581260     0.13200
H650        H  0.32458405  0.15412198  0.07982196     0.09600
H651        H  0.37589778  0.17201211  0.15331950     0.10700
H652        H  0.27282736  0.15137693  0.16259172     0.16500
C653        C  0.12738357  0.32915167  0.19941398    -0.01700
C654        C  0.12336781  0.33023673  0.16795211     0.06900
C655        C  0.14226371  0.31437898  0.14917881    -0.07700
C656        C  0.16500188  0.29760951  0.16111391     0.04400
C657        C  0.16932959  0.29660889  0.19266983    -0.14900
C658        C  0.15016005  0.31232620  0.21148452    -0.08200
C659        C  0.09954485  0.34742378  0.15382562     0.05300
C660        C  0.10550280  0.37265346  0.13471284    -0.09300
C661        C  0.08379557  0.38844546  0.11948782     0.00300
C662        C  0.05517296  0.37921953  0.12362429     0.00200
C663        C  0.04954581  0.35361115  0.14274995    -0.12900
C664        C  0.07130819  0.33759963  0.15740421     0.00600
C665        C  0.09191648  0.41349713  0.09954217     0.39900
C666        C  0.06425170  0.31019504  0.17482647     0.36500
C667        C  0.10891602  0.34580717  0.21966766     0.36300
C668        C  0.18304179  0.28108289  0.14029924     0.37000
N669        N  0.09860889  0.43340002  0.08341641    -0.43800
N670        N  0.05864500  0.28813932  0.18864829    -0.44200
N671        N  0.19742489  0.26789696  0.12351739    -0.41600
N672        N  0.09410073  0.35908323  0.23594693    -0.43000
H673        H  0.15340069  0.31220774  0.23562479     0.13200
H674        H  0.13904709  0.31490422  0.12500777     0.09600
H675        H  0.12734052  0.37981164  0.13142882     0.10700
H676        H  0.02801644  0.34545409  0.14602120     0.16500
C677        C  0.14727381  0.17198997  0.31955201    -0.01700
C678        C  0.15802217  0.14689020  0.33661997     0.06900
C679        C  0.18733715  0.14461830  0.34086290    -0.07700
C680        C  0.20591585  0.16708685  0.32905958     0.04400
C681        C  0.19528312  0.19288197  0.31259584    -0.14900
C682        C  0.16585545  0.19467226  0.30766331    -0.08200
C683        C  0.13952796  0.12186119  0.34944843     0.05300
C684        C  0.13329691  0.09564389  0.33176883    -0.09300
C685        C  0.11973322  0.06940877  0.34413073     0.00300
C686        C  0.11177133  0.06908163  0.37492293     0.00200
C687        C  0.11659911  0.09614017  0.39215254    -0.12900
C688        C  0.13068909  0.12218896  0.37979694     0.00600
C689        C  0.11465178  0.04296133  0.32465104     0.39900
C690        C  0.13707420  0.14844824  0.39901415     0.36500
C691        C  0.11724713  0.17512406  0.31442157     0.36300
C692        C  0.23592121  0.16248330  0.33353596     0.37000
N693        N  0.11074018  0.02176683  0.30900528    -0.43800
N694        N  0.14232110  0.16945165  0.41445492    -0.44200
N695        N  0.25995423  0.15873539  0.33708233    -0.41600
N696        N  0.09315082  0.17761042  0.31035901    -0.43000
H697        H  0.15726651  0.21424838  0.29522135     0.13200
H698        H  0.19577046  0.12501910  0.35341910     0.09600
H699        H  0.14003813  0.09522133  0.30844600     0.10700
H700        H  0.11084466  0.09630230  0.41576250     0.16500
C701        C  0.84303363  0.35802294  0.34316370    -0.01700
C702        C  0.83069049  0.36461431  0.37138104     0.06900
C703        C  0.80127135  0.36200473  0.37469935    -0.07700
C704        C  0.78456244  0.34972313  0.35157598     0.04400
C705        C  0.79724073  0.34007842  0.32440262    -0.14900
C706        C  0.82620968  0.34578784  0.31983532    -0.08200
C707        C  0.84801333  0.37050743  0.39874119     0.05300
C708        C  0.86282655  0.39872608  0.40194708    -0.09300
C709        C  0.87782565  0.40546652  0.42847752     0.00300
C710        C  0.87832085  0.38346333  0.45230446     0.00200
C711        C  0.86366946  0.35513888  0.44875493    -0.12900
C712        C  0.84870395  0.34850653  0.42236930     0.00600
C713        C  0.89102445  0.43580601  0.43117915     0.39900
C714        C  0.83432251  0.31878100  0.42002239     0.36500
C715        C  0.87314286  0.36119541  0.33848537     0.36300
C716        C  0.75468977  0.34506197  0.35699761     0.37000
N717        N  0.90148697  0.46017901  0.43337727    -0.43800
N718        N  0.82278189  0.29497470  0.41825651    -0.44200
N719        N  0.73076069  0.34129025  0.36131579    -0.41600
N720        N  0.89727443  0.36385229  0.33471198    -0.43000
H721        H  0.83614149  0.33810147  0.29912943     0.13200
H722        H  0.79161699  0.36764405  0.39615826     0.09600
H723        H  0.86203866  0.41583697  0.38399097     0.10700
H724        H  0.86395053  0.33797175  0.46667265     0.16500
C725        C  0.63837376  0.41565599  0.17740501    -0.01700
C726        C  0.65255406  0.39372651  0.15924392     0.06900
C727        C  0.64977672  0.39556300  0.12785177    -0.07700
C728        C  0.63474911  0.42012274  0.11439848     0.04400
C729        C  0.62237328  0.44347460  0.13257281    -0.14900
C730        C  0.62378116  0.44046973  0.16402732    -0.08200
C731        C  0.67267980  0.37083434  0.17241378     0.05300
C732        C  0.66633294  0.33884390  0.17152281    -0.09300
C733        C  0.68560767  0.31677672  0.18264111     0.00300
C734        C  0.71179956  0.32672675  0.19498327     0.00200
C735        C  0.71779046  0.35879986  0.19635188    -0.12900
C736        C  0.69868413  0.38075232  0.18494277     0.00600
C737        C  0.67786095  0.28413472  0.18144462     0.39900
C738        C  0.70680654  0.41328295  0.18499048     0.36500
C739        C  0.63897515  0.41334649  0.20980891     0.36300
C740        C  0.63429541  0.42209257  0.08198184     0.37000
N741        N  0.67173230  0.25796488  0.18049963    -0.43800
N742        N  0.71329993  0.43935724  0.18490706    -0.44200
N743        N  0.63399001  0.42361522  0.05598945    -0.41600
N744        N  0.63939703  0.41128635  0.23576443    -0.43000
H745        H  0.61398432  0.45799691  0.17820422     0.13200
H746        H  0.66055340  0.37863988  0.11380454     0.09600
H747        H  0.64636598  0.33112494  0.16195526     0.10700
H748        H  0.73801084  0.36669206  0.20517359     0.16500
C749        C  0.67506214  0.14507285  0.08178257    -0.01700
C750        C  0.67532567  0.12727152  0.10846355     0.06900
C751        C  0.65732989  0.10124555  0.11086770    -0.07700
C752        C  0.63987001  0.09222082  0.08672324     0.04400
C753        C  0.64028759  0.10960159  0.05961904    -0.14900
C754        C  0.65786203  0.13605482  0.05777034    -0.08200
C755        C  0.69314707  0.13696486  0.13440205     0.05300
C756        C  0.67981660  0.14911354  0.16000202    -0.09300
C757        C  0.69536760  0.16564717  0.18166718     0.00300
C758        C  0.72476375  0.17015953  0.17771831     0.00200
C759        C  0.73844144  0.15553474  0.15354462    -0.12900
C760        C  0.72293146  0.13860108  0.13215241     0.00600
C761        C  0.68013826  0.18053030  0.20586443     0.39900
C762        C  0.73776390  0.12451904  0.10722080     0.36500
C763        C  0.69175709  0.17321964  0.07866003     0.36300
C764        C  0.62264500  0.06454750  0.09014657     0.37000
N765        N  0.66756617  0.19240950  0.22502506    -0.43800
N766        N  0.74962440  0.11320256  0.08724163    -0.44200
N767        N  0.60886528  0.04235979  0.09306569    -0.41600
N768        N  0.70512292  0.19574549  0.07603000    -0.43000
H769        H  0.65808909  0.15002223  0.03741721     0.13200
H770        H  0.65716285  0.08780347  0.13153774     0.09600
H771        H  0.65694582  0.14774214  0.16189925     0.10700
H772        H  0.76103069  0.15887301  0.15044183     0.16500
C773        C  0.82152015  0.13545559  0.31029059    -0.01700
C774        C  0.83623405  0.14191391  0.33726031     0.06900
C775        C  0.83574209  0.17218041  0.34906625    -0.07700
C776        C  0.81917484  0.19538021  0.33568735     0.04400
C777        C  0.80198618  0.18807768  0.31041912    -0.14900
C778        C  0.80433459  0.15836038  0.29729062    -0.08200
C779        C  0.85084787  0.11696023  0.35432176     0.05300
C780        C  0.88040319  0.11793158  0.35783301    -0.09300
C781        C  0.89485492  0.09316052  0.37167402     0.00300
C782        C  0.87949079  0.06698618  0.38209948     0.00200
C783        C  0.84977780  0.06733083  0.38050498    -0.12900
C784        C  0.83542261  0.09199424  0.36693499     0.00600
C785        C  0.92535886  0.09437127  0.37313144     0.39900
C786        C  0.80484769  0.09091376  0.36584278     0.36500
C787        C  0.82371323  0.10545445  0.29564494     0.36300
C788        C  0.82083251  0.22655188  0.34802688     0.37000
N789        N  0.94982151  0.09558695  0.37426255    -0.43800
N790        N  0.78036670  0.08996719  0.36494073    -0.44200
N791        N  0.82247435  0.25154287  0.35780788    -0.41600
N792        N  0.82561291  0.08148325  0.28380141    -0.43000
H793        H  0.79203842  0.15262051  0.27741064     0.13200
H794        H  0.84783436  0.17749009  0.36920487     0.09600
H795        H  0.89224930  0.13749393  0.34873957     0.10700
H796        H  0.83770048  0.04766661  0.38908481     0.16500
C797        C  0.61074795  0.13303769  0.37528132    -0.01700
C798        C  0.61186517  0.14069329  0.34440881     0.06900
C799        C  0.58926760  0.13223503  0.32568230    -0.07700
C800        C  0.56486316  0.11838841  0.33760437     0.04400
C801        C  0.56276884  0.11282063  0.36893190    -0.14900
C802        C  0.58630206  0.11911898  0.38730926    -0.08200
C803        C  0.63527551  0.15971542  0.33160395     0.05300
C804        C  0.65432178  0.14612967  0.31127672    -0.09300
C805        C  0.67657321  0.16367068  0.29878658     0.00300
C806        C  0.67968561  0.19565913  0.30632743     0.00200
C807        C  0.66018118  0.20915884  0.32632245    -0.12900
C808        C  0.63813836  0.19161494  0.33882144     0.00600
C809        C  0.69657784  0.14780057  0.27960627     0.39900
C810        C  0.61840161  0.20703567  0.35864739     0.36500
C811        C  0.63416928  0.14007045  0.39507091     0.36300
C812        C  0.54213107  0.11038255  0.31719828     0.37000
N813        N  0.71259933  0.13498060  0.26430151    -0.43800
N814        N  0.60261967  0.21944275  0.37452913    -0.44200
N815        N  0.52386852  0.10392358  0.30094173    -0.41600
N816        N  0.65301183  0.14575058  0.41083389    -0.43000
H817        H  0.58505458  0.11474804  0.41130119     0.13200
H818        H  0.59026387  0.13758665  0.30185229     0.09600
H819        H  0.65206856  0.12161459  0.30559220     0.10700
H820        H  0.66210601  0.23365006  0.33223587     0.16500
C821        C  0.88189980  0.34422142  0.18982693    -0.01700
C822        C  0.87810044  0.35991813  0.16223859     0.06900
C823        C  0.85104586  0.36118795  0.14936243    -0.07700
C824        C  0.82822752  0.34531559  0.16259066     0.04400
C825        C  0.83240817  0.32785934  0.18927579    -0.14900
C826        C  0.85906314  0.32866019  0.20327680    -0.08200
C827        C  0.90274041  0.37153033  0.14483160     0.05300
C828        C  0.92019563  0.34945259  0.13090231    -0.09300
C829        C  0.94505689  0.35857391  0.11628941     0.00300
C830        C  0.95259522  0.39048529  0.11498322     0.00200
C831        C  0.93437245  0.41279005  0.12759173    -0.12900
C832        C  0.90968284  0.40350298  0.14279716     0.00600
C833        C  0.96264918  0.33464246  0.10315349     0.39900
C834        C  0.89282260  0.42686954  0.15773013     0.36500
C835        C  0.90938531  0.34264991  0.20399399     0.36300
C836        C  0.80081485  0.34719463  0.14825657     0.37000
N837        N  0.97669046  0.31536221  0.09273946    -0.43800
N838        N  0.87947832  0.44564144  0.16989424    -0.44200
N839        N  0.77883145  0.34870635  0.13682321    -0.41600
N840        N  0.93146769  0.34133068  0.21521987    -0.43000
H841        H  0.86249484  0.31563816  0.22387422     0.13200
H842        H  0.84803793  0.37347912  0.12827620     0.09600
H843        H  0.91472758  0.32486459  0.13221387     0.10700
H844        H  0.94026480  0.43728104  0.12709511     0.16500
C845        C  0.10468404  0.68215009  0.40144748    -0.01700
C846        C  0.11932212  0.65994289  0.38391239     0.06900
C847        C  0.11569037  0.62804177  0.39002253    -0.07700
C848        C  0.09950574  0.61820582  0.41460929     0.04400
C849        C  0.08724871  0.64063819  0.43385701    -0.14900
C850        C  0.08918186  0.67238610  0.42650091    -0.08200
C851        C  0.14148620  0.66975490  0.36226347     0.05300
C852        C  0.16344501  0.68901562  0.37285929    -0.09300
C853        C  0.18487899  0.69933927  0.35372251     0.00300
C854        C  0.18501387  0.68965511  0.32338464     0.00200
C855        C  0.16365816  0.66940604  0.31298615    -0.12900
C856        C  0.14184355  0.65957505  0.33208341     0.00600
C857        C  0.20678497  0.71921412  0.36605782     0.39900
C858        C  0.11975335  0.63984830  0.31997547     0.36500
C859        C  0.10619524  0.71513549  0.39476637     0.36300
C860        C  0.09803463  0.58519758  0.42110958     0.37000
N861        N  0.22429285  0.73519902  0.37591245    -0.43800
N862        N  0.10212667  0.62395884  0.31022108    -0.44200
N863        N  0.09678483  0.55875899  0.42633339    -0.41600
N864        N  0.10757366  0.74150832  0.38927362    -0.43000
H865        H  0.07949098  0.68964912  0.44106384     0.13200
H866        H  0.12696971  0.61085821  0.37674384     0.09600
H867        H  0.16382116  0.69604757  0.39631242     0.10700
H868        H  0.16354390  0.66197589  0.28964628     0.16500
C869        C  0.37882344  0.79504090  0.31405385    -0.01700
C870        C  0.37445233  0.81177097  0.34102232     0.06900
C871        C  0.34685382  0.81444643  0.35233619    -0.07700
C872        C  0.32356994  0.80301821  0.33595508     0.04400
C873        C  0.32773207  0.78860663  0.30758857    -0.14900
C874        C  0.35560808  0.78346953  0.29772042    -0.08200
C875        C  0.39796970  0.82949503  0.35563108     0.05300
C876        C  0.40960360  0.85507901  0.34018624    -0.09300
C877        C  0.43271065  0.87163722  0.35194310     0.00300
C878        C  0.44461260  0.86277544  0.37971315     0.00200
C879        C  0.43243596  0.83792426  0.39580318    -0.12900
C880        C  0.40916611  0.82131597  0.38401584     0.00600
C881        C  0.44419981  0.89745945  0.33496128     0.39900
C882        C  0.39791652  0.79521394  0.40073488     0.36500
C883        C  0.40695640  0.79058828  0.30212910     0.36300
C884        C  0.29558492  0.80704921  0.34843310     0.37000
N885        N  0.45348404  0.91821159  0.32149674    -0.43800
N886        N  0.38890162  0.77427277  0.41413864    -0.44200
N887        N  0.27313539  0.81022343  0.35838242    -0.41600
N888        N  0.42953612  0.78708255  0.29263951    -0.43000
H889        H  0.35926739  0.77232882  0.27615565     0.13200
H890        H  0.34337432  0.82684680  0.37328619     0.09600
H891        H  0.40083289  0.86181307  0.31858831     0.10700
H892        H  0.44168968  0.83084510  0.41706072     0.16500
C893        C  0.34376117  0.85629290  0.15846433    -0.01700
C894        C  0.36005452  0.83703671  0.13966174     0.06900
C895        C  0.36125149  0.80489904  0.14516501    -0.07700
C896        C  0.34468804  0.79140364  0.16784115     0.04400
C897        C  0.32637744  0.81040191  0.18518181    -0.14900
C898        C  0.32709295  0.84294917  0.18091382    -0.08200
C899        C  0.37193713  0.84940803  0.11142591     0.05300
C900        C  0.40119908  0.85398270  0.10849711    -0.09300
C901        C  0.41243904  0.86687617  0.08206691     0.00300
C902        C  0.39413582  0.87453110  0.05798326     0.00200
C903        C  0.36492114  0.86954685  0.06109586    -0.12900
C904        C  0.35372740  0.85738925  0.08756154     0.00600
C905        C  0.44268954  0.87141194  0.08006549     0.39900
C906        C  0.32337609  0.85367888  0.08994938     0.36500
C907        C  0.34264644  0.88965976  0.15389367     0.36300
C908        C  0.34701615  0.75818059  0.17250665     0.37000
N909        N  0.46692030  0.87522152  0.07852198    -0.43800
N910        N  0.29908019  0.85098217  0.09220203    -0.44200
N911        N  0.34929961  0.73154096  0.17595077    -0.41600
N912        N  0.34176831  0.91634416  0.14996602    -0.43000
H913        H  0.31364819  0.85806474  0.19424051     0.13200
H914        H  0.37411649  0.79018187  0.13079236     0.09600
H915        H  0.41513208  0.84787941  0.12697636     0.10700
H916        H  0.35065354  0.87562791  0.04291575     0.16500
C917        C  0.08944123  0.69390415  0.13786820    -0.01700
C918        C  0.11454372  0.67738558  0.14425510     0.06900
C919        C  0.11630088  0.64580133  0.13579685    -0.07700
C920        C  0.09325266  0.63039859  0.12228001     0.04400
C921        C  0.06762304  0.64660265  0.11728028    -0.14900
C922        C  0.06627510  0.67845106  0.12481346    -0.08200
C923        C  0.13787673  0.69157620  0.16251103     0.05300
C924        C  0.13175414  0.70215610  0.19172209    -0.09300
C925        C  0.15326941  0.71243340  0.21114799     0.00300
C926        C  0.18178803  0.71198557  0.20159309     0.00200
C927        C  0.18781259  0.70253590  0.17193310    -0.12900
C928        C  0.16618802  0.69263964  0.15236931     0.00600
C929        C  0.14566531  0.72081178  0.24155084     0.39900
C930        C  0.17356325  0.68363185  0.12206606     0.36500
C931        C  0.08702564  0.72681512  0.14437495     0.36300
C932        C  0.09590188  0.59752020  0.11564673     0.37000
N933        N  0.13959853  0.72750204  0.26593116    -0.43800
N934        N  0.17950865  0.67655017  0.09775006    -0.44200
N935        N  0.09792683  0.57116660  0.11031028    -0.41600
N936        N  0.08515345  0.75322183  0.14949610    -0.43000
H937        H  0.04693132  0.69133932  0.12063690     0.13200
H938        H  0.13537164  0.63277736  0.14088127     0.09600
H939        H  0.11012648  0.70112323  0.19986641     0.10700
H940        H  0.20961294  0.70209001  0.16427814     0.16500
C941        C  0.36873391  0.64506522  0.19640460    -0.01700
C942        C  0.35905306  0.62710292  0.17171148     0.06900
C943        C  0.33096724  0.63056944  0.16208257    -0.07700
C944        C  0.31226622  0.65033745  0.17727451     0.04400
C945        C  0.32162493  0.66766935  0.20253988    -0.14900
C946        C  0.35011243  0.66541584  0.21137206    -0.08200
C947        C  0.37626937  0.60166143  0.15794915     0.05300
C948        C  0.38409920  0.57634816  0.17607776    -0.09300
C949        C  0.39615577  0.54947810  0.16360706     0.00300
C950        C  0.40018794  0.54717811  0.13215417     0.00200
C951        C  0.39388543  0.57326045  0.11414244    -0.12900
C952        C  0.38203469  0.60036581  0.12677338     0.00600
C953        C  0.40475166  0.52491588  0.18383229     0.39900
C954        C  0.37599220  0.62658198  0.10741702     0.36500
C955        C  0.39748975  0.64249597  0.20711550     0.36300
C956        C  0.28339043  0.65205456  0.16661576     0.37000
N957        N  0.41182773  0.50546417  0.20022345    -0.43800
N958        N  0.37131232  0.64769786  0.09197557    -0.44200
N959        N  0.26023825  0.65326966  0.15814230    -0.41600
N960        N  0.42051628  0.64030983  0.21577306    -0.43000
H961        H  0.35752568  0.67860581  0.23068339     0.13200
H962        H  0.32323986  0.61666582  0.14336776     0.09600
H963        H  0.37994884  0.57717811  0.20006390     0.10700
H964        H  0.39735252  0.57212436  0.09005117     0.16500
C965        C  0.16264799  0.84647766  0.34890074    -0.01700
C966        C  0.15699249  0.87695503  0.33820962     0.06900
C967        C  0.16541936  0.88470989  0.30884961    -0.07700
C968        C  0.18039567  0.86354573  0.29085248     0.04400
C969        C  0.18739205  0.83363985  0.30199461    -0.14900
C970        C  0.17753716  0.82506599  0.33070691    -0.08200
C971        C  0.14456822  0.90228044  0.35742250     0.05300
C972        C  0.16103339  0.92905358  0.36287213    -0.09300
C973        C  0.14956833  0.95547404  0.37690447     0.00300
C974        C  0.12080332  0.95570953  0.38594375     0.00200
C975        C  0.10475979  0.92823259  0.38223021    -0.12900
C976        C  0.11628786  0.90177655  0.36788031     0.00600
C977        C  0.16787372  0.98216655  0.38153164     0.39900
C978        C  0.09813917  0.87521984  0.36244615     0.36500
C979        C  0.15505447  0.83729167  0.37906337     0.36300
C980        C  0.18859775  0.87322528  0.26097577     0.37000
N981        N  0.18243446  0.00362787  0.38520084    -0.43800
N982        N  0.08355695  0.85391187  0.35815416    -0.44200
N983        N  0.19508119  0.88095975  0.23700292    -0.41600
N984        N  0.14892668  0.82982861  0.40322122    -0.43000
H985        H  0.18299321  0.80232203  0.33968611     0.13200
H986        H  0.16090812  0.90785305  0.30020775     0.09600
H987        H  0.18286624  0.92961992  0.35530529     0.10700
H988        H  0.08269877  0.92799405  0.38897138     0.16500
C989        C  0.86366794  0.61737040  0.39384594    -0.01700
C990        C  0.83427266  0.61540090  0.38845046     0.06900
C991        C  0.81703408  0.60016886  0.40961452    -0.07700
C992        C  0.82804709  0.58999855  0.43718178     0.04400
C993        C  0.85710147  0.59427559  0.44369814    -0.14900
C994        C  0.87484443  0.60660655  0.42120181    -0.08200
C995        C  0.82035483  0.63480034  0.36491230     0.05300
C996        C  0.82354188  0.62825003  0.33404791    -0.09300
C997        C  0.81118641  0.64772256  0.31205756     0.00300
C998        C  0.79594050  0.67456594  0.32105125     0.00200
C999        C  0.79233121  0.68025589  0.35196049    -0.12900
C1000       C  0.80418893  0.66085664  0.37365111     0.00600
C1001       C  0.81492536  0.63999712  0.28070143     0.39900
C1002       C  0.80005723  0.66879644  0.40495745     0.36500
C1003       C  0.88247987  0.63231205  0.37266173     0.36300
C1004       C  0.80889976  0.57579627  0.45849583     0.37000
N1005       N  0.81768970  0.63365806  0.25555849    -0.43800
N1006       N  0.79667250  0.67490981  0.43005873    -0.44200
N1007       N  0.79347014  0.56447507  0.47554075    -0.41600
N1008       N  0.89769222  0.64418922  0.35574497    -0.43000
H1009       H  0.89727889  0.60956431  0.42565941     0.13200
H1010       H  0.79445210  0.59829002  0.40545038     0.09600
H1011       H  0.83576227  0.60808047  0.32718384     0.10700
H1012       H  0.78030768  0.70035807  0.35943646     0.16500
C1013       C  0.65411236  0.60341580  0.12266737    -0.01700
C1014       C  0.65696904  0.60800462  0.15410509     0.06900
C1015       C  0.64211515  0.58797478  0.17354966    -0.07700
C1016       C  0.62611694  0.56282338  0.16238976     0.04400
C1017       C  0.62432660  0.55736656  0.13105005    -0.14900
C1018       C  0.63777841  0.57840887  0.11146331    -0.08200
C1019       C  0.67567314  0.63305631  0.16711981     0.05300
C1020       C  0.67118091  0.66434590  0.15909510    -0.09300
C1021       C  0.68910273  0.68827456  0.16950582     0.00300
C1022       C  0.71207999  0.68129931  0.18900903     0.00200
C1023       C  0.71577373  0.65012101  0.19807360    -0.12900
C1024       C  0.69810628  0.62614316  0.18716731     0.00600
C1025       C  0.68314417  0.71976307  0.15976517     0.39900
C1026       C  0.70441381  0.59440004  0.19570615     0.36500
C1027       C  0.66897713  0.62299287  0.10144534     0.36300
C1028       C  0.61153506  0.54297872  0.18362577     0.37000
N1029       N  0.67837022  0.74492365  0.15177840    -0.43800
N1030       N  0.70950188  0.56895572  0.20252848    -0.44200
N1031       N  0.59978106  0.52708262  0.20059188    -0.41600
N1032       N  0.68087101  0.63875731  0.08447464    -0.43000
H1033       H  0.63675927  0.57437764  0.08739417     0.13200
H1034       H  0.64339774  0.59171340  0.19764868     0.09600
H1035       H  0.65368625  0.67009583  0.14429397     0.10700
H1036       H  0.73329467  0.64418179  0.21276428     0.16500
C1037       C  0.70939024  0.86639092  0.12822857    -0.01700
C1038       C  0.67968683  0.86614210  0.13125559     0.06900
C1039       C  0.66732998  0.85456300  0.15763453    -0.07700
C1040       C  0.68404002  0.84024667  0.17960584     0.04400
C1041       C  0.71359789  0.83841573  0.17552358    -0.14900
C1042       C  0.72613866  0.85275587  0.15050057    -0.08200
C1043       C  0.66136168  0.87190988  0.10498801     0.05300
C1044       C  0.66259327  0.85060926  0.08109679    -0.09300
C1045       C  0.64668547  0.85518137  0.05505772     0.00300
C1046       C  0.62898396  0.88160059  0.05268758     0.00200
C1047       C  0.62683995  0.90220001  0.07732726    -0.12900
C1048       C  0.64289619  0.89751221  0.10340392     0.00600
C1049       C  0.64881357  0.83216720  0.03139435     0.39900
C1050       C  0.64090271  0.91969727  0.12777558     0.36500
C1051       C  0.72281297  0.87789599  0.10119298     0.36300
C1052       C  0.67001563  0.82357208  0.20358088     0.37000
N1053       N  0.65057970  0.81379086  0.01239113    -0.43800
N1054       N  0.63938290  0.93740922  0.14737819    -0.44200
N1055       N  0.65852570  0.80974446  0.22232143    -0.41600
N1056       N  0.73333638  0.88687005  0.07932641    -0.43000
H1057       H  0.74880848  0.85080177  0.14705645     0.13200
H1058       H  0.64444171  0.85392609  0.15965009     0.09600
H1059       H  0.67632361  0.83041026  0.08276861     0.10700
H1060       H  0.61335111  0.92259106  0.07590230     0.16500
C1061       C  0.63874111  0.84895636  0.30355213    -0.01700
C1062       C  0.62498910  0.83794204  0.32961725     0.06900
C1063       C  0.63569553  0.81166152  0.34431534    -0.07700
C1064       C  0.65969559  0.79616330  0.33365694     0.04400
C1065       C  0.67383882  0.80695472  0.30734647    -0.14900
C1066       C  0.66299718  0.83362869  0.29276806    -0.08200
C1067       C  0.59894851  0.85267921  0.34188217     0.05300
C1068       C  0.57356688  0.85015469  0.32568084    -0.09300
C1069       C  0.54792004  0.86053527  0.33796819     0.00300
C1070       C  0.54737803  0.87383789  0.36718296     0.00200
C1071       C  0.57306570  0.87721996  0.38290937    -0.12900
C1072       C  0.59862823  0.86667698  0.37061711     0.00600
C1073       C  0.52268126  0.85760811  0.31979409     0.39900
C1074       C  0.62430331  0.87034590  0.38794919     0.36500
C1075       C  0.62869209  0.87635391  0.28799943     0.36300
C1076       C  0.66880309  0.76913905  0.35046947     0.37000
N1077       N  0.50247252  0.85523102  0.30520791    -0.43800
N1078       N  0.64488664  0.87327873  0.40182866    -0.44200
N1079       N  0.67602153  0.74760139  0.36415696    -0.41600
N1080       N  0.62056775  0.89834456  0.27562527    -0.43000
H1081       H  0.67364159  0.84285988  0.27308681     0.13200
H1082       H  0.62499345  0.80302004  0.36425759     0.09600
H1083       H  0.57371383  0.83935382  0.30359871     0.10700
H1084       H  0.57314323  0.88742365  0.40524673     0.16500
C1085       C  0.82637587  0.84932390  0.34718449    -0.01700
C1086       C  0.82976934  0.87873509  0.33349307     0.06900
C1087       C  0.81657680  0.88413660  0.30557901    -0.07700
C1088       C  0.79945311  0.86124519  0.29181452     0.04400
C1089       C  0.79538095  0.83191803  0.30596572    -0.14900
C1090       C  0.80954278  0.82640674  0.33343511    -0.08200
C1091       C  0.84550802  0.90466235  0.34878431     0.05300
C1092       C  0.87452285  0.90151138  0.35545161    -0.09300
C1093       C  0.88980676  0.92578606  0.36951260     0.00300
C1094       C  0.87603402  0.95396236  0.37707504     0.00200
C1095       C  0.84685866  0.95662091  0.37095612    -0.12900
C1096       C  0.83165356  0.93246049  0.35712058     0.00600
C1097       C  0.91976378  0.92174299  0.37449608     0.39900
C1098       C  0.80165648  0.93659949  0.35217428     0.36500
C1099       C  0.83882670  0.84249729  0.37611713     0.36300
C1100       C  0.78554379  0.86921553  0.26393800     0.37000
N1101       N  0.94380237  0.91854935  0.37847836    -0.43800
N1102       N  0.77762670  0.93988737  0.34820284    -0.44200
N1103       N  0.77445887  0.87586347  0.24161781    -0.41600
N1104       N  0.84874457  0.83692874  0.39931051    -0.43000
H1105       H  0.80708853  0.80414077  0.34474980     0.13200
H1106       H  0.81915618  0.90669244  0.29482341     0.09600
H1107       H  0.88536754  0.88020670  0.34916963     0.10700
H1108       H  0.83575254  0.97788387  0.37689216     0.16500
C1109       C  0.87900326  0.66647733  0.19217239    -0.01700
C1110       C  0.88534304  0.66618771  0.16119069     0.06900
C1111       C  0.86578691  0.67874063  0.14088778    -0.07700
C1112       C  0.84083388  0.69291242  0.15095787     0.04400
C1113       C  0.83518791  0.69523633  0.18231766    -0.14900
C1114       C  0.85432046  0.68111748  0.20245806    -0.08200
C1115       C  0.91273415  0.65432101  0.14932864     0.05300
C1116       C  0.91283064  0.62838435  0.13008181    -0.09300
C1117       C  0.93799243  0.61784736  0.11670147     0.00300
C1118       C  0.96398831  0.63364007  0.12240602     0.00200
C1119       C  0.96355477  0.65960624  0.14195368    -0.12900
C1120       C  0.93840135  0.67002527  0.15517239     0.00600
C1121       C  0.93603743  0.59085496  0.09733011     0.39900
C1122       C  0.93930311  0.69775017  0.17368136     0.36500
C1123       C  0.89738479  0.65167854  0.21381266     0.36300
C1124       C  0.82167533  0.70458190  0.12826766     0.37000
N1125       N  0.93419799  0.56921895  0.08182249    -0.43800
N1126       N  0.94003004  0.71997468  0.18848809    -0.44200
N1127       N  0.80644773  0.71375324  0.10988905    -0.41600
N1128       N  0.91197146  0.63970461  0.23123546    -0.43000
H1129       H  0.85035259  0.68193506  0.22646017     0.13200
H1130       H  0.87035599  0.67800705  0.11697528     0.09600
H1131       H  0.89303262  0.61643335  0.12532986     0.10700
H1132       H  0.98289503  0.67239991  0.14668221     0.16500
C1133       C  0.35357737  0.34670194  0.81089083    -0.01700
C1134       C  0.34463568  0.36528122  0.83545898     0.06900
C1135       C  0.31727279  0.36049159  0.84680145    -0.07700
C1136       C  0.29939264  0.33716392  0.83513191     0.04400
C1137       C  0.30881667  0.31721775  0.81152368    -0.14900
C1138       C  0.33585552  0.32295285  0.79932624    -0.08200
C1139       C  0.36282818  0.39062462  0.84896503     0.05300
C1140       C  0.37263142  0.41494677  0.83056583    -0.09300
C1141       C  0.38850883  0.43987026  0.84237841     0.00300
C1142       C  0.39432133  0.44165053  0.87366269     0.00200
C1143       C  0.38527297  0.41681886  0.89202402    -0.12900
C1144       C  0.36975121  0.39150953  0.87999610     0.00600
C1145       C  0.39947485  0.46261578  0.82141966     0.39900
C1146       C  0.36140007  0.36652435  0.89990997     0.36500
C1147       C  0.38117802  0.35105584  0.79760998     0.36300
C1148       C  0.27120101  0.33502799  0.84762806     0.37000
N1149       N  0.40841288  0.48040027  0.80426871    -0.43800
N1150       N  0.35472183  0.34643732  0.91582254    -0.44200
N1151       N  0.24863977  0.33346396  0.85769008    -0.41600
N1152       N  0.40324732  0.35484449  0.78689794    -0.43000
H1153       H  0.34353437  0.30836492  0.78115742     0.13200
H1154       H  0.30968459  0.37535086  0.86483537     0.09600
H1155       H  0.36766352  0.41461828  0.80674001     0.10700
H1156       H  0.38966942  0.41753745  0.91596488     0.16500
C1157       C  0.38654221  0.19456349  0.68575309    -0.01700
C1158       C  0.38086658  0.16556336  0.67160989     0.06900
C1159       C  0.35286998  0.15457590  0.67085273    -0.07700
C1160       C  0.33062117  0.17241518  0.68258068     0.04400
C1161       C  0.33618937  0.20179061  0.69613022    -0.14900
C1162       C  0.36434923  0.21212521  0.69820503    -0.08200
C1163       C  0.40382086  0.14665944  0.65730564     0.05300
C1164       C  0.42730657  0.13790778  0.67465914    -0.09300
C1165       C  0.45065923  0.12311740  0.66156865     0.00300
C1166       C  0.45062938  0.11600072  0.63041533     0.00200
C1167       C  0.42632898  0.12278618  0.61345653    -0.12900
C1168       C  0.40315481  0.13820258  0.62651029     0.00600
C1169       C  0.47450102  0.11589858  0.68071885     0.39900
C1170       C  0.37970441  0.14666653  0.60736515     0.36500
C1171       C  0.41476976  0.20760741  0.68630125     0.36300
C1172       C  0.30227521  0.15974110  0.68063328     0.37000
N1173       N  0.49365234  0.11035023  0.69605756    -0.43800
N1174       N  0.36090717  0.15338437  0.59198038    -0.44200
N1175       N  0.27957730  0.14960665  0.67894650    -0.41600
N1176       N  0.43744205  0.21793949  0.68658179    -0.43000
H1177       H  0.36890021  0.23461550  0.70837236     0.13200
H1178       H  0.34832465  0.13206428  0.66071527     0.09600
H1179       H  0.42772034  0.14345996  0.69847266     0.10700
H1180       H  0.42604107  0.11762556  0.58956665     0.16500
C1181       C  0.18529889  0.15038004  0.65322142    -0.01700
C1182       C  0.15849905  0.14396650  0.66592148     0.06900
C1183       C  0.15070427  0.16017189  0.69219185    -0.07700
C1184       C  0.16854681  0.18289808  0.70523275     0.04400
C1185       C  0.19481514  0.19054435  0.69156079    -0.14900
C1186       C  0.20273291  0.17364813  0.66563585    -0.08200
C1187       C  0.13942031  0.11879644  0.65367303     0.05300
C1188       C  0.13052241  0.09480365  0.67300027    -0.09300
C1189       C  0.11447361  0.06949267  0.66234596     0.00300
C1190       C  0.10771895  0.06698834  0.63138211     0.00200
C1191       C  0.11495188  0.09197682  0.61234728    -0.12900
C1192       C  0.13019769  0.11795234  0.62331582     0.00600
C1193       C  0.10418071  0.04706764  0.68401486     0.39900
C1194       C  0.13550119  0.14375140  0.60318416     0.36500
C1195       C  0.19615759  0.13240700  0.62828528     0.36300
C1196       C  0.15918415  0.19760781  0.73268566     0.37000
N1197       N  0.09557354  0.02939085  0.70146223    -0.43800
N1198       N  0.13966543  0.16448270  0.58707884    -0.44200
N1199       N  0.15161596  0.20902967  0.75486075    -0.41600
N1200       N  0.20493303  0.11802840  0.60832812    -0.43000
H1201       H  0.22298264  0.17825485  0.65502279     0.13200
H1202       H  0.13052753  0.15492182  0.70270489     0.09600
H1203       H  0.13642637  0.09563036  0.69657586     0.10700
H1204       H  0.10923117  0.09095889  0.58873382     0.16500
C1205       C  0.09850341  0.37578631  0.85322697    -0.01700
C1206       C  0.09722356  0.34316031  0.84915043     0.06900
C1207       C  0.07354815  0.32655770  0.85940880    -0.07700
C1208       C  0.05087566  0.34209806  0.87296153     0.04400
C1209       C  0.05191724  0.37486473  0.87675808    -0.14900
C1210       C  0.07601259  0.39134582  0.86721947    -0.08200
C1211       C  0.12090647  0.32565366  0.83545120     0.05300
C1212       C  0.14009241  0.31062072  0.85449689    -0.09300
C1213       C  0.16313060  0.29420905  0.84277364     0.00300
C1214       C  0.16739815  0.29284219  0.81123787     0.00200
C1215       C  0.14749725  0.30708464  0.79216083    -0.12900
C1216       C  0.12434305  0.32339365  0.80403478     0.00600
C1217       C  0.18155601  0.27835483  0.86371226     0.39900
C1218       C  0.10433197  0.33755045  0.78366650     0.36500
C1219       C  0.12253806  0.39373364  0.84296362     0.36300
C1220       C  0.02711161  0.32378762  0.88343330     0.37000
N1221       N  0.19622256  0.26560167  0.88054004    -0.43800
N1222       N  0.08822116  0.34879308  0.76733957    -0.44200
N1223       N  0.00808998  0.30911093  0.89185471    -0.41600
N1224       N  0.14173107  0.40818874  0.83463753    -0.43000
H1225       H  0.07687261  0.41651344  0.86983116     0.13200
H1226       H  0.07278197  0.30139286  0.85670807     0.09600
H1227       H  0.13706311  0.31182471  0.87866566     0.10700
H1228       H  0.15039681  0.30617492  0.76798709     0.16500
C1229       C  0.18934976  0.35847582  0.63515837    -0.01700
C1230       C  0.15979672  0.35375252  0.63520371     0.06900
C1231       C  0.14776757  0.33315122  0.65614288    -0.07700
C1232       C  0.16489144  0.31637956  0.67619087     0.04400
C1233       C  0.19467642  0.32004421  0.67520159    -0.14900
C1234       C  0.20648376  0.34164605  0.65500949    -0.08200
C1235       C  0.14200539  0.36642593  0.61061876     0.05300
C1236       C  0.13408070  0.34613220  0.58734688    -0.09300
C1237       C  0.12132822  0.35748844  0.56117731     0.00300
C1238       C  0.11605911  0.38977380  0.55809440     0.00200
C1239       C  0.12231062  0.40984313  0.58226819    -0.12900
C1240       C  0.13544177  0.39842632  0.60837183     0.00600
C1241       C  0.11379279  0.33545446  0.53788137     0.39900
C1242       C  0.14274073  0.41991904  0.63219885     0.36500
C1243       C  0.20270202  0.37892901  0.61355655     0.36300
C1244       C  0.15153811  0.29362094  0.69556205     0.37000
N1245       N  0.10772663  0.31772598  0.51928654    -0.43800
N1246       N  0.14867243  0.43706269  0.65134648    -0.44200
N1247       N  0.14082041  0.27528692  0.71095192    -0.41600
N1248       N  0.21330854  0.39532922  0.59619334    -0.43000
H1249       H  0.22928900  0.34457115  0.65400466     0.13200
H1250       H  0.12507850  0.32912982  0.65586173     0.09600
H1251       H  0.13891240  0.32145441  0.58916391     0.10700
H1252       H  0.11810672  0.43463161  0.58022243     0.16500
C1253       C  0.36117285  0.17769946  0.84652903    -0.01700
C1254       C  0.35087922  0.15655884  0.86822753     0.06900
C1255       C  0.32215869  0.14814016  0.86796669    -0.07700
C1256       C  0.30328327  0.16231877  0.84792437     0.04400
C1257       C  0.31323232  0.18520470  0.82761063    -0.14900
C1258       C  0.34238419  0.19162258  0.82623250    -0.08200
C1259       C  0.36867774  0.14640108  0.89384145     0.05300
C1260       C  0.37637993  0.16876513  0.91543210    -0.09300
C1261       C  0.39064570  0.16008680  0.94167031     0.00300
C1262       C  0.39745432  0.12844496  0.94660401     0.00200
C1263       C  0.39089531  0.10626159  0.92433800    -0.12900
C1264       C  0.37640181  0.11497513  0.89814615     0.00600
C1265       C  0.39832844  0.18413464  0.96298922     0.39900
C1266       C  0.36946798  0.09134449  0.87616020     0.36500
C1267       C  0.39072406  0.18637240  0.84558897     0.36300
C1268       C  0.27376738  0.15344535  0.84898801     0.37000
N1269       N  0.40457754  0.20347976  0.97995349    -0.43800
N1270       N  0.36397886  0.07236274  0.85853735    -0.44200
N1271       N  0.25011530  0.14633066  0.84975069    -0.41600
N1272       N  0.41442248  0.19329150  0.84494528    -0.43000
H1273       H  0.35025187  0.20907154  0.81062991     0.13200
H1274       H  0.31422865  0.13169018  0.88451041     0.09600
H1275       H  0.37057550  0.19300617  0.91207680     0.10700
H1276       H  0.39605481  0.08189096  0.92795507     0.16500
C1277       C  0.84120477  0.34559973  0.66793348    -0.01700
C1278       C  0.82929071  0.35867153  0.64174780     0.06900
C1279       C  0.79978732  0.36000618  0.63866682    -0.07700
C1280       C  0.78215623  0.34600214  0.66002831     0.04400
C1281       C  0.79415053  0.33078840  0.68506618    -0.14900
C1282       C  0.82353008  0.33186563  0.68947693    -0.08200
C1283       C  0.84687107  0.36569167  0.61511820     0.05300
C1284       C  0.84793344  0.34332128  0.59214670    -0.09300
C1285       C  0.86336484  0.34881574  0.56586445     0.00300
C1286       C  0.87858824  0.37706598  0.56250461     0.00200
C1287       C  0.87789051  0.39923219  0.58592155    -0.12900
C1288       C  0.86183497  0.39391810  0.61193657     0.00600
C1289       C  0.86326214  0.32491178  0.54293261     0.39900
C1290       C  0.85992024  0.41816614  0.63439986     0.36500
C1291       C  0.87148418  0.34334052  0.67174086     0.36300
C1292       C  0.75199410  0.34540795  0.65464397     0.37000
N1293       N  0.86290644  0.30566874  0.52464366    -0.43800
N1294       N  0.85812439  0.43770431  0.65228699    -0.44200
N1295       N  0.72784050  0.34497489  0.65022920    -0.41600
N1296       N  0.89574810  0.34140138  0.67482917    -0.43000
H1297       H  0.83283614  0.31947796  0.70831892     0.13200
H1298       H  0.79064256  0.37001859  0.61847377     0.09600
H1299       H  0.83634093  0.32156338  0.59468697     0.10700
H1300       H  0.88901167  0.42126861  0.58343058     0.16500
C1301       C  0.66974685  0.32736904  0.84759117    -0.01700
C1302       C  0.67164752  0.35944469  0.84069703     0.06900
C1303       C  0.69257088  0.36952663  0.82042017    -0.07700
C1304       C  0.71150946  0.34848206  0.80721092     0.04400
C1305       C  0.71013017  0.31640616  0.81462467    -0.14900
C1306       C  0.68890265  0.30627883  0.83467755    -0.08200
C1307       C  0.65285925  0.38331430  0.85479387     0.05300
C1308       C  0.65274479  0.38706433  0.88625900    -0.09300
C1309       C  0.63863881  0.41229448  0.89977261     0.00300
C1310       C  0.62500264  0.43469805  0.88159555     0.00200
C1311       C  0.62393675  0.43006192  0.85037468    -0.12900
C1312       C  0.63721196  0.40440962  0.83698492     0.00600
C1313       C  0.63996271  0.41574456  0.93205929     0.39900
C1314       C  0.63460477  0.40026268  0.80485653     0.36500
C1315       C  0.64817892  0.31546054  0.86755518     0.36300
C1316       C  0.73282767  0.36092825  0.78726167     0.37000
N1317       N  0.64094381  0.41840809  0.95795401    -0.43800
N1318       N  0.63247538  0.39677954  0.77913320    -0.44200
N1319       N  0.74972811  0.37122139  0.77122752    -0.41600
N1320       N  0.63092924  0.30585544  0.88357786    -0.43000
H1321       H  0.68731924  0.28172982  0.84044495     0.13200
H1322       H  0.69446053  0.39420593  0.81528880     0.09600
H1323       H  0.66468106  0.37102623  0.90019969     0.10700
H1324       H  0.61307633  0.44691642  0.83631605     0.16500
C1325       C  0.82531774  0.15857530  0.64976148    -0.01700
C1326       C  0.83002593  0.12940482  0.66332640     0.06900
C1327       C  0.81930966  0.12388026  0.69230303    -0.07700
C1328       C  0.80248853  0.14610795  0.70703006     0.04400
C1329       C  0.79612865  0.17480165  0.69264044    -0.14900
C1330       C  0.80865622  0.18086365  0.66438412    -0.08200
C1331       C  0.84335377  0.10328396  0.64644395     0.05300
C1332       C  0.87181310  0.10524678  0.63745537    -0.09300
C1333       C  0.88474791  0.08060465  0.62177443     0.00300
C1334       C  0.86915491  0.05308933  0.61532448     0.00200
C1335       C  0.84034931  0.05190849  0.62342449    -0.12900
C1336       C  0.82743307  0.07662139  0.63861765     0.00600
C1337       C  0.91414934  0.08394789  0.61350244     0.39900
C1338       C  0.79760378  0.07435093  0.64556285     0.36500
C1339       C  0.83597820  0.16550883  0.62005719     0.36300
C1340       C  0.79129687  0.13796559  0.73619958     0.37000
N1341       N  0.93767499  0.08667021  0.60667964    -0.43800
N1342       N  0.77371445  0.07279416  0.65117377    -0.44200
N1343       N  0.78245237  0.13117717  0.75957551    -0.41600
N1344       N  0.84458386  0.17099874  0.59626635    -0.43000
H1345       H  0.80470734  0.20278640  0.65296908     0.13200
H1346       H  0.82319705  0.10150953  0.70294935     0.09600
H1347       H  0.88401655  0.12595937  0.64300910     0.10700
H1348       H  0.82777617  0.03140433  0.61806714     0.16500
C1349       C  0.60369359  0.11560526  0.63152264    -0.01700
C1350       C  0.60414455  0.14384104  0.64799113     0.06900
C1351       C  0.57967982  0.16220227  0.64883129    -0.07700
C1352       C  0.55450225  0.15211261  0.63544956     0.04400
C1353       C  0.55343085  0.12295752  0.62030547    -0.14900
C1354       C  0.57847272  0.10545734  0.61781219    -0.08200
C1355       C  0.62979577  0.15537094  0.66411876     0.05300
C1356       C  0.65459380  0.16105217  0.64772220    -0.09300
C1357       C  0.67802860  0.17532617  0.66125166     0.00300
C1358       C  0.67675225  0.18486430  0.69175128     0.00200
C1359       C  0.65255929  0.17762506  0.70865682    -0.12900
C1360       C  0.62913286  0.16308463  0.69509663     0.00600
C1361       C  0.70323662  0.17976368  0.64329760     0.39900
C1362       C  0.60443468  0.15681753  0.71327954     0.36500
C1363       C  0.62848989  0.09611973  0.62927022     0.36300
C1364       C  0.53024590  0.17246722  0.63774405     0.37000
N1365       N  0.72349490  0.18333288  0.62905412    -0.43800
N1366       N  0.58453559  0.15190990  0.72772118    -0.44200
N1367       N  0.51086125  0.18879041  0.63985974    -0.41600
N1368       N  0.64842447  0.08060334  0.62732794    -0.43000
H1369       H  0.57813025  0.08321074  0.60615536     0.13200
H1370       H  0.58019270  0.18452864  0.66038155     0.09600
H1371       H  0.65537216  0.15516994  0.62399940     0.10700
H1372       H  0.65148980  0.18446385  0.73212757     0.16500
C1373       C  0.67380467  0.13326966  0.92294620    -0.01700
C1374       C  0.66293667  0.12304561  0.89511546     0.06900
C1375       C  0.63803929  0.10518345  0.89452337    -0.07700
C1376       C  0.62392464  0.09728153  0.92127746     0.04400
C1377       C  0.63489162  0.10741793  0.94945298    -0.14900
C1378       C  0.65995972  0.12534185  0.94959340    -0.08200
C1379       C  0.67678759  0.13267164  0.86664853     0.05300
C1380       C  0.70398128  0.12137399  0.86006901    -0.09300
C1381       C  0.72080054  0.13587264  0.83813428     0.00300
C1382       C  0.71038884  0.16220820  0.82278469     0.00200
C1383       C  0.68223145  0.17145180  0.82728220    -0.12900
C1384       C  0.66528982  0.15672431  0.84886140     0.00600
C1385       C  0.74915309  0.12456542  0.83317653     0.39900
C1386       C  0.63704627  0.16836107  0.85404613     0.36500
C1387       C  0.69864345  0.15299774  0.92469494     0.36300
C1388       C  0.59837973  0.07885544  0.91874191     0.37000
N1389       N  0.77175990  0.11505449  0.82925909    -0.43800
N1390       N  0.61434979  0.17755947  0.85809037    -0.44200
N1391       N  0.57787520  0.06413684  0.91660371    -0.41600
N1392       N  0.71846605  0.16889057  0.92610032    -0.43000
H1393       H  0.66880344  0.13375353  0.97061728     0.13200
H1394       H  0.62952468  0.09760144  0.87304533     0.09600
H1395       H  0.71271600  0.10254582  0.87345040     0.10700
H1396       H  0.67413153  0.19169066  0.81542802     0.16500
C1397       C  0.86701588  0.31988554  0.85473109    -0.01700
C1398       C  0.87428237  0.34865162  0.84129222     0.06900
C1399       C  0.85972582  0.35809152  0.81536069    -0.07700
C1400       C  0.83819600  0.33954566  0.80277645     0.04400
C1401       C  0.83078339  0.31056675  0.81618772    -0.14900
C1402       C  0.84536713  0.30137609  0.84236375    -0.08200
C1403       C  0.89906397  0.36734037  0.85190556     0.05300
C1404       C  0.92247173  0.37009345  0.83276548    -0.09300
C1405       C  0.94776859  0.38363145  0.84277854     0.00300
C1406       C  0.95024761  0.39433516  0.87284122     0.00200
C1407       C  0.92604262  0.39401489  0.89122307    -0.12900
C1408       C  0.90048341  0.38086455  0.88089074     0.00600
C1409       C  0.97081001  0.38629022  0.82155525     0.39900
C1410       C  0.87601829  0.38154299  0.90030605     0.36500
C1411       C  0.88244255  0.30811768  0.88037058     0.36300
C1412       C  0.82391836  0.35148348  0.77649734     0.37000
N1413       N  0.98919128  0.38848879  0.80447466    -0.43800
N1414       N  0.85636934  0.38232988  0.91582404    -0.44200
N1415       N  0.81275774  0.36154439  0.75546694    -0.41600
N1416       N  0.89489296  0.29876270  0.90089131    -0.43000
H1417       H  0.84030396  0.27924058  0.85292848     0.13200
H1418       H  0.86542989  0.38002133  0.80472958     0.09600
H1419       H  0.92126674  0.36068470  0.81012805     0.10700
H1420       H  0.92736593  0.40284642  0.91405200     0.16500
C1421       C  0.12944180  0.63148760  0.58726167    -0.01700
C1422       C  0.14114770  0.66181425  0.58796317     0.06900
C1423       C  0.13334344  0.68331417  0.56568540    -0.07700
C1424       C  0.11436725  0.67504202  0.54278782     0.04400
C1425       C  0.10302926  0.64439483  0.54161912    -0.14900
C1426       C  0.11056460  0.62306013  0.56427881    -0.08200
C1427       C  0.16108337  0.67190414  0.61205142     0.05300
C1428       C  0.18751004  0.65721821  0.61483986    -0.09300
C1429       C  0.20684701  0.66638872  0.63719728     0.00300
C1430       C  0.19991038  0.69097368  0.65711673     0.00200
C1431       C  0.17352861  0.70580168  0.65396181    -0.12900
C1432       C  0.15414990  0.69637278  0.63191790     0.00600
C1433       C  0.23388771  0.65082324  0.63854258     0.39900
C1434       C  0.12682347  0.71138836  0.63083048     0.36500
C1435       C  0.13611677  0.60877778  0.61015491     0.36300
C1436       C  0.10639614  0.69883666  0.52139101     0.37000
N1437       N  0.25557154  0.63835233  0.63959227    -0.43800
N1438       N  0.10487532  0.72329385  0.62993451    -0.44200
N1439       N  0.10001365  0.71797664  0.50433163    -0.41600
N1440       N  0.14145654  0.59056820  0.62850836    -0.43000
H1441       H  0.10216435  0.59947024  0.56376102     0.13200
H1442       H  0.14210114  0.70675689  0.56627127     0.09600
H1443       H  0.19308265  0.63863297  0.59937156     0.10700
H1444       H  0.16764304  0.72436997  0.66932826     0.16500
C1445       C  0.35020006  0.81880012  0.64861864    -0.01700
C1446       C  0.37860240  0.81660483  0.65831128     0.06900
C1447       C  0.38437637  0.80269527  0.68630406    -0.07700
C1448       C  0.36244286  0.79197777  0.70490874     0.04400
C1449       C  0.33399660  0.79565007  0.69581419    -0.14900
C1450       C  0.32825492  0.80868130  0.66746208    -0.08200
C1451       C  0.40240679  0.83065302  0.64081966     0.05300
C1452       C  0.40169169  0.86266796  0.63392998    -0.09300
C1453       C  0.42472656  0.87751145  0.62003932     0.00300
C1454       C  0.44950002  0.86037953  0.61346460     0.00200
C1455       C  0.44990174  0.82818519  0.61963969    -0.12900
C1456       C  0.42654716  0.81321664  0.63277214     0.00600
C1457       C  0.42285783  0.91063508  0.61434976     0.39900
C1458       C  0.42763305  0.77986802  0.63737103     0.36500
C1459       C  0.34302170  0.83128270  0.61943329     0.36300
C1460       C  0.36963215  0.77932502  0.73404327     0.37000
N1461       N  0.42133524  0.93715793  0.60967340    -0.43800
N1462       N  0.42832585  0.75312380  0.64098074    -0.44200
N1463       N  0.37531301  0.76916216  0.75739615    -0.41600
N1464       N  0.33723372  0.84122862  0.59602784    -0.43000
H1465       H  0.30646369  0.81139635  0.66019446     0.13200
H1466       H  0.40608571  0.80121266  0.69414372     0.09600
H1467       H  0.38334721  0.87635659  0.64024153     0.10700
H1468       H  0.46858923  0.81464578  0.61421854     0.16500
C1469       C  0.15541314  0.65452684  0.80425537    -0.01700
C1470       C  0.13708969  0.67643059  0.81747045     0.06900
C1471       C  0.14243076  0.70842798  0.81321271    -0.07700
C1472       C  0.16557070  0.71872686  0.79583778     0.04400
C1473       C  0.18380900  0.69667347  0.78209906    -0.14900
C1474       C  0.17834775  0.66465890  0.78692798    -0.08200
C1475       C  0.11198097  0.66592432  0.83511080     0.05300
C1476       C  0.11606067  0.65005005  0.86238932    -0.09300
C1477       C  0.09311722  0.63736998  0.87841270     0.00300
C1478       C  0.06520117  0.64022912  0.86698667     0.00200
C1479       C  0.06134038  0.65668832  0.83977089    -0.12900
C1480       C  0.08426716  0.66949439  0.82398843     0.00600
C1481       C  0.09906699  0.62221675  0.90669775     0.39900
C1482       C  0.07889265  0.68540442  0.79592132     0.36500
C1483       C  0.15053197  0.62136281  0.80731233     0.36300
C1484       C  0.17026412  0.75192898  0.79313047     0.37000
N1485       N  0.10393794  0.61016448  0.92941001    -0.43800
N1486       N  0.07457287  0.69822099  0.77347443    -0.44200
N1487       N  0.17404688  0.77855729  0.79107903    -0.41600
N1488       N  0.14656173  0.59481304  0.80979178    -0.43000
H1489       H  0.19172323  0.64714076  0.77660352     0.13200
H1490       H  0.12846378  0.72538883  0.82353137     0.09600
H1491       H  0.13738709  0.64735395  0.87107360     0.10700
H1492       H  0.04029556  0.65933839  0.83036661     0.16500
C1493       C  0.37119627  0.65576690  0.81259099    -0.01700
C1494       C  0.35999293  0.63261445  0.83180953     0.06900
C1495       C  0.33055566  0.62970006  0.83442546    -0.07700
C1496       C  0.31225850  0.64802038  0.81700286     0.04400
C1497       C  0.32332648  0.66987473  0.79610031    -0.14900
C1498       C  0.35290273  0.67427013  0.79505484    -0.08200
C1499       C  0.37801414  0.60805654  0.84587539     0.05300
C1500       C  0.38313968  0.60812011  0.87705650    -0.09300
C1501       C  0.39596588  0.58232222  0.89127339     0.00300
C1502       C  0.40340022  0.55568520  0.87417615     0.00200
C1503       C  0.39955911  0.55663265  0.84282800    -0.12900
C1504       C  0.38699022  0.58227550  0.82870615     0.00600
C1505       C  0.39941901  0.58295236  0.92353303     0.39900
C1506       C  0.38167668  0.58067695  0.79673481     0.36500
C1507       C  0.40139689  0.66034756  0.81013508     0.36300
C1508       C  0.28216593  0.64396220  0.82134247     0.37000
N1509       N  0.40222715  0.58347501  0.94939994    -0.43800
N1510       N  0.37724270  0.57943250  0.77115321    -0.44200
N1511       N  0.25805360  0.64075668  0.82487757    -0.41600
N1512       N  0.42563155  0.66399823  0.80837326    -0.43000
H1513       H  0.36181758  0.69135095  0.77972756     0.13200
H1514       H  0.32181831  0.61211361  0.84935561     0.09600
H1515       H  0.37612087  0.62780429  0.89043528     0.10700
H1516       H  0.40547472  0.53667030  0.82931177     0.16500
C1517       C  0.34105522  0.85540440  0.84532775    -0.01700
C1518       C  0.34799961  0.83723087  0.87053280     0.06900
C1519       C  0.34147897  0.80533742  0.87080549    -0.07700
C1520       C  0.32732529  0.79142185  0.84653962     0.04400
C1521       C  0.31869485  0.81001691  0.82177444    -0.14900
C1522       C  0.32640411  0.84183874  0.82136149    -0.08200
C1523       C  0.36147754  0.85136049  0.89718575     0.05300
C1524       C  0.34423120  0.86109486  0.92098047    -0.09300
C1525       C  0.35611373  0.87455868  0.94671584     0.00300
C1526       C  0.38578382  0.87845558  0.94870309     0.00200
C1527       C  0.40293912  0.86934284  0.92449391    -0.12900
C1528       C  0.39098649  0.85562727  0.89886945     0.00600
C1529       C  0.33736125  0.88496310  0.97032990     0.39900
C1530       C  0.40927634  0.84544339  0.87481440     0.36500
C1531       C  0.34855665  0.88808252  0.84373674     0.36300
C1532       C  0.32193443  0.75824203  0.84807955     0.37000
N1533       N  0.32228043  0.89338238  0.98915339    -0.43800
N1534       N  0.42377770  0.83711091  0.85545634    -0.44200
N1535       N  0.31793006  0.73159669  0.84932542    -0.41600
N1536       N  0.35471992  0.91421736  0.84240636    -0.43000
H1537       H  0.32085814  0.85639745  0.80231015     0.13200
H1538       H  0.34737874  0.79134028  0.89014414     0.09600
H1539       H  0.32145004  0.85816304  0.91937668     0.10700
H1540       H  0.42574227  0.87204186  0.92600001     0.16500
C1541       C  0.12951543  0.92606223  0.67190996    -0.01700
C1542       C  0.13533152  0.90024754  0.65331526     0.06900
C1543       C  0.12505462  0.90004005  0.62367998    -0.07700
C1544       C  0.11012944  0.92576750  0.61207419     0.04400
C1545       C  0.10564301  0.95249737  0.63027504    -0.14900
C1546       C  0.11488082  0.95176212  0.66037230    -0.08200
C1547       C  0.15471241  0.87518306  0.66380148     0.05300
C1548       C  0.14373193  0.84800743  0.67711953    -0.09300
C1549       C  0.16171234  0.82615450  0.69106997     0.00300
C1550       C  0.19136432  0.83137910  0.69166194     0.00200
C1551       C  0.20211549  0.85807040  0.67693226    -0.12900
C1552       C  0.18421111  0.87987451  0.66341853     0.00600
C1553       C  0.14894478  0.79968188  0.70590806     0.39900
C1554       C  0.19655816  0.90770557  0.65046612     0.36500
C1555       C  0.13937046  0.92711567  0.70266718     0.36300
C1556       C  0.10119840  0.92470907  0.58101819     0.37000
N1557       N  0.13861041  0.77852944  0.71785977    -0.43800
N1558       N  0.20647781  0.93007521  0.64030333    -0.44200
N1559       N  0.09394692  0.92386390  0.55614771    -0.41600
N1560       N  0.14734530  0.92784964  0.72728329    -0.43000
H1561       H  0.11129529  0.97172899  0.67484942     0.13200
H1562       H  0.12961087  0.88023847  0.60927653     0.24000
H1563       H  0.12098660  0.84450356  0.67766867     0.10700
H1564       H  0.22472569  0.86256451  0.67660640     0.16500
C1565       C  0.78353249  0.62316350  0.64487373    -0.01700
C1566       C  0.81294494  0.62378529  0.63947252     0.06900
C1567       C  0.83070789  0.64047220  0.65910314    -0.07700
C1568       C  0.81923981  0.65888340  0.68208885     0.04400
C1569       C  0.78964880  0.66017770  0.68589608    -0.14900
C1570       C  0.77210442  0.64127040  0.66807957    -0.08200
C1571       C  0.82482322  0.61239260  0.61063105     0.05300
C1572       C  0.81781413  0.62864457  0.58429592    -0.09300
C1573       C  0.83027112  0.62111439  0.55669762     0.00300
C1574       C  0.85034219  0.59671962  0.55508286     0.00200
C1575       C  0.85672349  0.57989210  0.58150005    -0.12900
C1576       C  0.84421506  0.58758673  0.60912696     0.00600
C1577       C  0.82318782  0.64014434  0.53099025     0.39900
C1578       C  0.85151612  0.56981160  0.63559849     0.36500
C1579       C  0.76461769  0.60575385  0.62557197     0.36300
C1580       C  0.83794481  0.67853302  0.69956466     0.37000
N1581       N  0.81745408  0.65552098  0.51048295    -0.43800
N1582       N  0.85730384  0.55555626  0.65683170    -0.44200
N1583       N  0.85295703  0.69444803  0.71335938    -0.41600
N1584       N  0.74956034  0.59180819  0.60997282    -0.43000
H1585       H  0.74930435  0.64253022  0.67076804     0.13200
H1586       H  0.85332551  0.64115909  0.65490795     0.09600
H1587       H  0.80313010  0.64804077  0.58553645     0.10700
H1588       H  0.87177312  0.56083769  0.58067179     0.16500
C1589       C  0.67999328  0.65596667  0.85737863    -0.01700
C1590       C  0.67379986  0.62847739  0.84115985     0.06900
C1591       C  0.68366795  0.62585183  0.81147095    -0.07700
C1592       C  0.70097079  0.64890027  0.79851156     0.04400
C1593       C  0.70848465  0.67595562  0.81522069    -0.14900
C1594       C  0.69697218  0.67930374  0.84438062    -0.08200
C1595       C  0.65910494  0.60113943  0.85526459     0.05300
C1596       C  0.63155294  0.60415788  0.86690455    -0.09300
C1597       C  0.61730682  0.57848310  0.87976064     0.00300
C1598       C  0.63046256  0.54879515  0.88055305     0.00200
C1599       C  0.65815546  0.54612658  0.86916716    -0.12900
C1600       C  0.67251806  0.57179961  0.85702747     0.00600
C1601       C  0.58906587  0.58325484  0.89123757     0.39900
C1602       C  0.70146756  0.56760548  0.84737557     0.36500
C1603       C  0.67048107  0.66010859  0.88798791     0.36300
C1604       C  0.71127030  0.64322286  0.76843545     0.37000
N1605       N  0.56648700  0.58716485  0.90059287    -0.43800
N1606       N  0.72468215  0.56435673  0.83969724    -0.44200
N1607       N  0.71947573  0.63835934  0.74436110    -0.41600
N1608       N  0.66283433  0.66346681  0.91250524    -0.43000
H1609       H  0.70195961  0.69982291  0.85768674     0.13200
H1610       H  0.67859074  0.60500662  0.79864687     0.09600
H1611       H  0.62104200  0.62659724  0.86571049     0.10700
H1612       H  0.66898037  0.52385432  0.87011402     0.16500
C1613       C  0.60246474  0.85965015  0.61526149    -0.01700
C1614       C  0.60330689  0.85127230  0.64598516     0.06900
C1615       C  0.57926190  0.85584606  0.66383309    -0.07700
C1616       C  0.55403327  0.86676078  0.65124653     0.04400
C1617       C  0.55250903  0.87317467  0.62010297    -0.14900
C1618       C  0.57712108  0.87050015  0.60255748    -0.08200
C1619       C  0.62812708  0.83551440  0.65969080     0.05300
C1620       C  0.64275677  0.84998680  0.68343695    -0.09300
C1621       C  0.66514855  0.83478794  0.69814323     0.00300
C1622       C  0.67328837  0.80442531  0.68893321     0.00200
C1623       C  0.65819985  0.79000103  0.66536990    -0.12900
C1624       C  0.63574996  0.80505218  0.65100258     0.00600
C1625       C  0.67956948  0.85126359  0.72204678     0.39900
C1626       C  0.62010565  0.78822149  0.62819781     0.36500
C1627       C  0.62726187  0.85712549  0.59642721     0.36300
C1628       C  0.53018732  0.87179685  0.67095376     0.37000
N1629       N  0.69094832  0.86460464  0.74124193    -0.43800
N1630       N  0.60752313  0.77473469  0.60997364    -0.44200
N1631       N  0.51107673  0.87600137  0.68670489    -0.41600
N1632       N  0.64715751  0.85513413  0.58136818    -0.43000
H1633       H  0.57633534  0.87597257  0.57874902     0.13200
H1634       H  0.57999190  0.85001537  0.68756884     0.09600
H1635       H  0.63658127  0.87322760  0.69052537     0.10700
H1636       H  0.66367898  0.76653809  0.65831932     0.16500
C1637       C  0.70248991  0.86619974  0.86310848    -0.01700
C1638       C  0.67291961  0.86149295  0.86264671     0.06900
C1639       C  0.66052241  0.84468492  0.83894101    -0.07700
C1640       C  0.67747743  0.83000841  0.81742987     0.04400
C1641       C  0.70717742  0.83240094  0.81955313    -0.14900
C1642       C  0.71940924  0.85153836  0.84158077    -0.08200
C1643       C  0.65548702  0.86951404  0.88909336     0.05300
C1644       C  0.65092944  0.90095176  0.89633534    -0.09300
C1645       C  0.63710584  0.90909662  0.92302369     0.00300
C1646       C  0.62773373  0.88544166  0.94275903     0.00200
C1647       C  0.63205782  0.85405669  0.93537782    -0.12900
C1648       C  0.64566162  0.84590234  0.90866748     0.00600
C1649       C  0.63440864  0.94175396  0.93059475     0.39900
C1650       C  0.65019148  0.81319645  0.90236495     0.36500
C1651       C  0.71610303  0.88334273  0.88711856     0.36300
C1652       C  0.66418119  0.81010925  0.79524414     0.37000
N1653       N  0.63238917  0.96790338  0.93678886    -0.43800
N1654       N  0.65373002  0.78699096  0.89729032    -0.44200
N1655       N  0.65358545  0.79409350  0.77749840    -0.41600
N1656       N  0.72694595  0.89707974  0.90639675    -0.43000
H1657       H  0.74228738  0.85294906  0.84343655     0.13200
H1658       H  0.63776964  0.84114084  0.83856954     0.09600
H1659       H  0.65888484  0.91907440  0.88152193     0.10700
H1660       H  0.62490297  0.83589691  0.95062014     0.16500
C1661       C  0.82672558  0.91160304  0.62564152    -0.01700
C1662       C  0.84174676  0.89136265  0.64492486     0.06900
C1663       C  0.87134499  0.89445967  0.64695204    -0.07700
C1664       C  0.88573846  0.91843163  0.63153499     0.04400
C1665       C  0.87046886  0.93963994  0.61347670    -0.14900
C1666       C  0.84105292  0.93555894  0.61042037    -0.08200
C1667       C  0.82681269  0.86695508  0.66302227     0.05300
C1668       C  0.83156221  0.83539457  0.65649372    -0.09300
C1669       C  0.81582635  0.81180656  0.67072131     0.00300
C1670       C  0.79468978  0.81960426  0.69209791     0.00200
C1671       C  0.79138758  0.85114024  0.70012607    -0.12900
C1672       C  0.80715976  0.87470979  0.68580610     0.00600
C1673       C  0.82189283  0.77977301  0.66288108     0.39900
C1674       C  0.80249657  0.90676544  0.69451542     0.36500
C1675       C  0.79654014  0.90834776  0.62127068     0.36300
C1676       C  0.91575566  0.92224756  0.63643543     0.37000
N1677       N  0.82674125  0.75410909  0.65660566    -0.43800
N1678       N  0.79869956  0.93247213  0.70141398    -0.44200
N1679       N  0.93980589  0.92541726  0.64046990    -0.41600
N1680       N  0.77235167  0.90570274  0.61785331    -0.43000
H1681       H  0.82907665  0.95175338  0.59666509     0.13200
H1682       H  0.88308952  0.87881618  0.66148178     0.09600
H1683       H  0.84705104  0.82920120  0.63951869     0.10700
H1684       H  0.77555931  0.85757623  0.71665238     0.16500
C1685       C  0.87837826  0.67175624  0.80775220    -0.01700
C1686       C  0.88105489  0.66368255  0.83838272     0.06900
C1687       C  0.85813548  0.66858469  0.85781511    -0.07700
C1688       C  0.83316674  0.68255273  0.84746362     0.04400
C1689       C  0.83073890  0.69154759  0.81691779    -0.14900
C1690       C  0.85328238  0.68523320  0.79726972    -0.08200
C1691       C  0.90850186  0.65334909  0.85119095     0.05300
C1692       C  0.93109189  0.67460363  0.85133602    -0.09300
C1693       C  0.95737364  0.66655311  0.86349191     0.00300
C1694       C  0.96152416  0.63642697  0.87586053     0.00200
C1695       C  0.93856555  0.61540137  0.87637423    -0.12900
C1696       C  0.91223556  0.62357886  0.86409318     0.00600
C1697       C  0.97927933  0.69017113  0.86367353     0.39900
C1698       C  0.88971273  0.60071418  0.86404215     0.36500
C1699       C  0.90133748  0.66710262  0.78679707     0.36300
C1700       C  0.81050441  0.68736085  0.86874214     0.37000
N1701       N  0.99671595  0.70922252  0.86374303    -0.43800
N1702       N  0.87174900  0.58227138  0.86396295    -0.44200
N1703       N  0.79244555  0.69125894  0.88591119    -0.41600
N1704       N  0.91974541  0.66354783  0.76998282    -0.43000
H1705       H  0.85175348  0.69202029  0.77386642     0.13200
H1706       H  0.86016401  0.66250104  0.88140557     0.09600
H1707       H  0.92805452  0.69778277  0.84205500     0.10700
H1708       H  0.94136754  0.59219416  0.88563074     0.16500
loop_ 
_geom_bond_atom_site_label_1 
_geom_bond_atom_site_label_2 
_geom_bond_distance 
_geom_bond_site_symmetry_2 
_ccdc_geom_bond_type 
N1            C6   1.357       .  A
N1            C5   1.356       .  A
N1           H33   1.034       .  S
N2            C9   1.353   1_565  A
N2           C10   1.355       .  A
N3            C8   1.353       .  A
N3            C7   1.354       .  A
N3           H34   1.036       .  S
N4           C11   1.354   1_565  A
N4           C12   1.353       .  A
C5           C13   1.387       .  A
C5           C21   1.422       .  A
C6           C22   1.423       .  A
C6           C14   1.388       .  A
C7           C15   1.387       .  A
C7           C24   1.414       .  A
C8           C23   1.416       .  A
C8           C16   1.388       .  A
C9           C21   1.419       .  A
C9           C17   1.388       .  A
C10          C24   1.417       .  A
C10          C18   1.385       .  A
C11          C19   1.388       .  A
C11          C22   1.419       .  A
C12          C20   1.386       .  A
C12          C23   1.416       .  A
C13          C14   1.378       .  A
C13          H25   1.082       .  S
C14          H26   1.082       .  S
C15          C16   1.374       .  A
C15          H27   1.083       .  S
C16          H28   1.082       .  S
C17          C18   1.374   1_545  A
C17          H29   1.082       .  S
C18          H30   1.083       .  S
C19          C20   1.373   1_545  A
C19          H31   1.082       .  S
C20          H32   1.083       .  S
C21         C433   1.485       .  S
C22         C517   1.489       .  S
C23         C541   1.477       .  S
C24         C483   1.483       .  S
N35          C40   1.351       .  A
N35          C39   1.351       .  A
N35          H67   1.037       .  S
N36          C43   1.351       .  A
N36          C44   1.350   1_655  A
N37          C42   1.353       .  A
N37          C41   1.354       .  A
N37          H68   1.037       .  S
N38          C45   1.351       .  A
N38          C46   1.349   1_655  A
C39          C47   1.388       .  A
C39          C55   1.412       .  A
C40          C56   1.413       .  A
C40          C48   1.388       .  A
C41          C49   1.386       .  A
C41          C58   1.415       .  A
C42          C57   1.417       .  A
C42          C50   1.389       .  A
C43          C55   1.411       .  A
C43          C51   1.385       .  A
C44          C58   1.413       .  A
C44          C52   1.387       .  A
C45          C53   1.385       .  A
C45          C56   1.411       .  A
C46          C54   1.388   1_455  A
C46          C57   1.413       .  A
C47          C48   1.370       .  A
C47          H59   1.081       .  S
C48          H60   1.081       .  S
C49          C50   1.376       .  A
C49          H61   1.082       .  S
C50          H62   1.082       .  S
C51          C52   1.375   1_655  A
C51          H63   1.082       .  S
C52          H64   1.082       .  S
C53          C54   1.374       .  A
C53          H65   1.082       .  S
C54          H66   1.082   1_655  S
C55         C457   1.472       .  S
C56         C553   1.474       .  S
C57         C489   1.474       .  S
C58         C501   1.477       .  S
N69          C74   1.356   1_554  A
N69          C73   1.357       .  A
N69         H101   1.036       .  S
N70          C77   1.356       .  A
N70          C78   1.355       .  A
N71          C76   1.358   1_554  A
N71          C75   1.356       .  A
N71         H102   1.031       .  S
N72          C79   1.354       .  A
N72          C80   1.356       .  A
C73          C81   1.387       .  A
C73          C89   1.421       .  A
C74          C90   1.422       .  A
C74          C82   1.388       .  A
C75          C83   1.388       .  A
C75          C92   1.426       .  A
C76          C91   1.426       .  A
C76          C84   1.387       .  A
C77          C89   1.421       .  A
C77          C85   1.386       .  A
C78          C92   1.425       .  A
C78          C86   1.388       .  A
C79          C87   1.387       .  A
C79          C90   1.421       .  A
C80          C88   1.387       .  A
C80          C91   1.424       .  A
C81          C82   1.377   1_554  A
C81          H93   1.082       .  S
C82          H94   1.082       .  S
C83          C84   1.379   1_554  A
C83          H95   1.082       .  S
C84          H96   1.082       .  S
C85          C86   1.374       .  A
C85          H97   1.082       .  S
C86          H98   1.082       .  S
C87          C88   1.375       .  A
C87          H99   1.082       .  S
C88         H100   1.082       .  S
C89         C451   1.492       .  S
C90         C549   1.486       .  S
C91         C525   1.496       .  S
C92         C465   1.490       .  S
N103        C108   1.356   1_556  A
N103        C107   1.355       .  A
N103        H135   1.036       .  S
N104        C111   1.353       .  A
N104        C112   1.353       .  A
N105        C110   1.355   1_556  A
N105        C109   1.356       .  A
N105        H136   1.038       .  S
N106        C113   1.353       .  A
N106        C114   1.352       .  A
C107        C115   1.387   1_455  A
C107        C123   1.419       .  A
C108        C124   1.420       .  A
C108        C116   1.388       .  A
C109        C117   1.387       .  A
C109        C126   1.419       .  A
C110        C125   1.418       .  A
C110        C118   1.387       .  A
C111        C123   1.416       .  A
C111        C119   1.387       .  A
C112        C126   1.415       .  A
C112        C120   1.386       .  A
C113        C121   1.387       .  A
C113        C124   1.416       .  A
C114        C122   1.387       .  A
C114        C125   1.415       .  A
C115        C116   1.376   1_656  A
C115        H127   1.082       .  S
C116        H128   1.082   1_455  S
C117        C118   1.376   1_556  A
C117        H129   1.082       .  S
C118        H130   1.082       .  S
C119        C120   1.374       .  A
C119        H131   1.082       .  S
C120        H132   1.082       .  S
C121        C122   1.374       .  A
C121        H133   1.082       .  S
C122        H134   1.083       .  S
C123        C505   1.483       .  S
C124        C421   1.483       .  S
C125        C471   1.482       .  S
C126        C535   1.484       .  S
N137        C142   1.350       .  A
N137        C141   1.351   1_565  A
N137        H169   1.035   1_564  S
N138        C145   1.352       .  A
N138        C146   1.349       .  A
N139        C144   1.354   1_545  A
N139        C143   1.351       .  A
N139        H170   1.037   1_554  S
N140        C147   1.347   1_554  A
N140        C148   1.348   1_554  A
C141        C149   1.388       .  A
C141        C157   1.411       .  A
C142        C158   1.411       .  A
C142        C150   1.388       .  A
C143        C151   1.388       .  A
C143        C160   1.414       .  A
C144        C159   1.414       .  A
C144        C152   1.387       .  A
C145        C157   1.411       .  A
C145        C153   1.385       .  A
C146        C160   1.412       .  A
C146        C154   1.388   1_554  A
C147        C155   1.387       .  A
C147        C158   1.406   1_556  A
C148        C156   1.386       .  A
C148        C159   1.406   1_556  A
C149        C150   1.370   1_545  A
C149        H161   1.082       .  S
C150        H162   1.082       .  S
C151        C152   1.375   1_545  A
C151        H163   1.082       .  S
C152        H164   1.082       .  S
C153        C154   1.374   1_554  A
C153        H165   1.082   1_554  S
C154        H166   1.082       .  S
C155        C156   1.372       .  A
C155        H167   1.082       .  S
C156        H168   1.082       .  S
C157        C447   1.473       .  S
C158        C493   1.461   1_554  S
C159        C477   1.469       .  S
C160        C427   1.469       .  S
O171       Ni177   1.922       .  S
O171        C192   1.271       .  A
O172       Ni195   1.909       .  S
O172        C181   1.266       .  A
O173       Ni177   1.910       .  S
O173       Ni195   1.905       .  S
O173       Ni189   1.917       .  S
O173        H196   0.966       .  S
C174       C1622   1.489       .  S
C174        O191   1.276       .  A
C174        O183   1.276       .  A
O175       Ni194   1.922       .  S
O175        C181   1.269       .  A
O176       Ni194   1.902       .  S
O176        C178   1.268       .  A
Ni177       O180   1.925       .  S
Ni177       O182   1.909       .  S
C178       C1670   1.493       .  S
C178        O188   1.276       .  A
O179       Ni195   1.915       .  S
O179        C185   1.275       .  A
O180        C185   1.276       .  A
C181       C1569   1.466       .  S
O182        C184   1.269       .  A
O183       Ni194   1.919       .  S
C184       C1593   1.504       .  S
C184        O190   1.275       .  A
C185       C1689   1.485       .  S
H186        O187   0.966       .  S
O187       Ni195   1.911       .  S
O187       Ni189   1.903       .  S
O187       Ni194   1.903       .  S
O188       Ni189   1.943       .  S
Ni189       O193   1.901       .  S
Ni189       O191   1.923       .  S
O190       Ni195   1.938       .  S
C192       C1641   1.461       .  S
C192        O193   1.266       .  A
O197       Ni203   1.943       .  S
O197        C218   1.275       .  A
O198       Ni221   1.922       .  S
O198        C207   1.271       .  A
O199       Ni203   1.911       .  S
O199       Ni221   1.917       .  S
O199       Ni215   1.912       .  S
O199        H222   0.966       .  S
C200       C1521   1.487       .  S
C200        O217   1.271       .  A
C200        O209   1.276       .  A
O201       Ni220   1.924       .  S
O201        C207   1.271       .  A
O202       Ni220   1.898       .  S
O202        C204   1.266       .  A
Ni203       O206   1.934       .  S
Ni203       O208   1.902       .  S
C204       C1449   1.481       .  S
C204        O214   1.274       .  A
O205       Ni221   1.906       .  S
O205        C211   1.272       .  A
O206        C211   1.277       .  A
C207       C1550   1.498       .  S
O208        C210   1.270       .  A
O209       Ni220   1.923       .  S
C210       C1473   1.499       .  S
C210        O216   1.277       .  A
C211       C1430   1.487       .  S
H212        O213   0.966       .  S
O213       Ni221   1.906       .  S
O213       Ni215   1.913       .  S
O213       Ni220   1.909       .  S
O214       Ni215   1.939       .  S
Ni215       O219   1.914       .  S
Ni215       O217   1.903       .  S
O216       Ni221   1.942       .  S
C218       C1497   1.497       .  S
C218        O219   1.267       .  A
O223       Ni229   1.913       .  S
O223        C244   1.267       .  A
O224       Ni247   1.908       .  S
O224        C233   1.267       .  A
O225       Ni229   1.907       .  S
O225       Ni247   1.908       .  S
O225       Ni241   1.914       .  S
O225        H248   0.960       .  S
C226       C1401   1.497       .  S
C226        O243   1.272       .  A
C226        O235   1.277       .  A
O227       Ni246   1.929       .  S
O227        C233   1.272       .  A
O228       Ni246   1.903       .  S
O228        C230   1.269       .  A
Ni229       O232   1.906       .  S
Ni229       O234   1.900       .  S
C230       C1305   1.490       .  S
C230        O240   1.276       .  A
O231       Ni247   1.929       .  S
O231        C237   1.276       .  A
O232        C237   1.271       .  A
C233       C1382   1.471       .  S
O234        C236   1.269       .  A
O235       Ni246   1.936       .  S
C236       C1329   1.498       .  S
C236        O242   1.276       .  A
C237       C1358   1.481       .  S
H238        O239   0.967       .  S
O239       Ni247   1.924       .  S
O239       Ni241   1.911       .  S
O239       Ni246   1.913       .  S
O240       Ni241   1.938       .  S
Ni241       O245   1.908       .  S
Ni241       O243   1.914       .  S
O242       Ni247   1.939       .  S
C244       C1281   1.465       .  S
C244        O245   1.266       .  A
O249       Ni255   1.933       .  S
O249        C270   1.274       .  A
O250       Ni273   1.912       .  S
O250        C259   1.271       .  A
O251       Ni255   1.895       .  S
O251       Ni273   1.901       .  S
O251       Ni267   1.909       .  S
O251        H274   0.966       .  S
C252       C1257   1.477       .  S
C252        O269   1.276       .  A
C252        O261   1.276       .  A
O253       Ni272   1.925       .  S
O253        C259   1.271       .  A
O254       Ni272   1.906       .  S
O254        C256   1.269       .  A
Ni255       O258   1.925       .  S
Ni255       O260   1.909       .  S
C256       C1137   1.509       .  S
C256        O266   1.283       .  A
O257       Ni273   1.919       .  S
O257        C263   1.277       .  A
O258        C263   1.279       .  A
C259       C1214   1.484       .  S
O260        C262   1.270       .  A
O261       Ni272   1.919       .  S
C262       C1185   1.506       .  S
C262        O268   1.277       .  A
C263       C1233   1.480       .  S
H264        O265   0.966       .  S
O265       Ni273   1.911       .  S
O265       Ni267   1.903       .  S
O265       Ni272   1.893       .  S
O266       Ni267   1.961       .  S
Ni267       O271   1.916       .  S
Ni267       O269   1.919       .  S
O268       Ni273   1.946       .  S
C270       C1161   1.489       .  S
C270        O271   1.274       .  A
O275       Ni281   1.914       .  S
O275        C296   1.269       .  A
O276       Ni299   1.903       .  S
O276        C285   1.267       .  A
O277       Ni281   1.891       .  S
O277       Ni299   1.894       .  S
O277       Ni293   1.912       .  S
O277        H300   0.966       .  S
C278       C1113   1.497       .  S
C278        O295   1.274       .  A
C278        O287   1.273       .  A
O279       Ni298   1.919       .  S
O279        C285   1.271       .  A
O280       Ni298   1.905       .  S
O280        C282   1.269       .  A
Ni281       O284   1.914       .  S
Ni281       O286   1.901       .  S
C282       C1022   1.499       .  S
C282        O292   1.280       .  A
O283       Ni299   1.940       .  S
O283        C289   1.283       .  A
O284        C289   1.276       .  A
C285       C1041   1.463       .  S
O286        C288   1.267       .  A
O287       Ni298   1.924       .  S
C288       C1089   1.501       .  S
C288        O294   1.275       .  A
C289       C1065   1.501       .  S
H290        O291   0.966       .  S
O291       Ni299   1.929       .  S
O291       Ni293   1.917       .  S
O291       Ni298   1.908       .  S
O292       Ni293   1.952       .  S
Ni293       O297   1.928       .  S
Ni293       O295   1.916       .  S
O294       Ni299   1.944       .  S
C296        C998   1.490       .  S
C296        O297   1.272       .  A
O301       Ni307   1.922       .  S
O301        C322   1.269       .  A
O302       Ni325   1.919       .  S
O302        C311   1.269       .  A
O303       Ni307   1.921       .  S
O303       Ni325   1.925       .  S
O303       Ni319   1.918       .  S
O303        H326   0.966       .  S
C304        C854   1.473       .  S
C304        O321   1.266       .  A
C304        O313   1.273       .  A
O305       Ni324   1.923       .  S
O305        C311   1.269       .  A
O306       Ni324   1.897       .  S
O306        C308   1.266       .  A
Ni307       O310   1.926       .  S
Ni307       O312   1.900       .  S
C308        C926   1.487       .  S
C308        O318   1.281       .  A
O309       Ni325   1.899       .  S
O309        C315   1.266       .  A
O310        C315   1.271       .  A
C311        C945   1.485       .  S
O312        C314   1.270       .  A
O313       Ni324   1.933       .  S
C314        C873   1.490       .  S
C314        O320   1.282       .  A
C315        C897   1.483       .  S
H316        O317   0.966       .  S
O317       Ni325   1.907       .  S
O317       Ni319   1.917       .  S
O317       Ni324   1.923       .  S
O318       Ni319   1.961       .  S
Ni319       O323   1.926       .  S
Ni319       O321   1.890       .  S
O320       Ni325   1.959       .  S
C322        C969   1.492       .  S
C322        O323   1.271       .  A
O327       Ni333   1.926       .  S
O327        C348   1.272       .  A
O328       Ni351   1.920       .  S
O328        C337   1.270       .  A
O329       Ni333   1.911       .  S
O329       Ni351   1.913       .  S
O329       Ni345   1.923       .  S
O329        H352   0.966       .  S
C330        C806   1.487       .  S
C330        O347   1.274       .  A
C330        O339   1.273       .  A
O331       Ni350   1.912       .  S
O331        C337   1.267       .  A
O332       Ni350   1.900       .  S
O332        C334   1.267       .  A
Ni333       O336   1.934       .  S
Ni333       O338   1.898       .  S
C334        C777   1.485       .  S
C334        O344   1.274       .  A
O335       Ni351   1.909       .  S
O335        C341   1.271       .  A
O336        C341   1.274       .  A
C337        C705   1.473       .  S
O338        C340   1.268       .  A
O339       Ni350   1.913       .  S
C340        C734   1.483       .  S
C340        O346   1.279       .  A
C341        C825   1.483       .  S
H342        O343   0.966       .  S
O343       Ni351   1.916       .  S
O343       Ni345   1.907       .  S
O343       Ni350   1.908       .  S
O344       Ni345   1.931       .  S
Ni345       O349   1.905       .  S
Ni345       O347   1.923       .  S
O346       Ni351   1.950       .  S
C348        C758   1.473       .  S
C348        O349   1.268       .  A
N353        C358   1.358       .  A
N353        C357   1.359       .  A
N353        H385   1.037   1_545  S
N354        C361   1.356       .  A
N354        C362   1.355   1_655  A
N355        C360   1.361       .  A
N355        C359   1.358       .  A
N355        H386   1.035       .  S
N356        C363   1.354       .  A
N356        C364   1.355   1_655  A
C357        C365   1.387       .  A
C357        C373   1.423   1_545  A
C358        C374   1.423       .  A
C358        C366   1.388       .  A
C359        C367   1.388       .  A
C359        C376   1.426       .  A
C360        C375   1.428       .  A
C360        C368   1.387       .  A
C361        C373   1.420   1_545  A
C361        C369   1.386   1_545  A
C362        C376   1.424       .  A
C362        C370   1.388       .  A
C363        C371   1.386       .  A
C363        C374   1.420       .  A
C364        C372   1.387       .  A
C364        C375   1.422       .  A
C365        C366   1.373       .  A
C365        H377   1.082       .  S
C366        H378   1.082       .  S
C367        C368   1.377       .  A
C367        H379   1.082       .  S
C368        H380   1.082       .  S
C369        C370   1.375   1_665  A
C369        H381   1.083       .  S
C370        H382   1.082       .  S
C371        C372   1.374   1_655  A
C371        H383   1.082       .  S
C372        H384   1.082       .  S
C373        C529   1.494       .  S
C374        C441   1.489       .  S
C375        C391   1.498       .  S
C376        C513   1.490       .  S
C387        N388   1.356   1_565  A
C387        N392   1.364       .  A
C387        C974   1.495       .  S
N388        C389   1.355       .  A
C389        N390   1.365       .  A
C389        C686   1.496       .  S
N390        C391   1.368       .  A
C391        N392   1.367   1_545  A
O393       Ni399   1.925       .  S
O393        C414   1.271       .  A
O394       Ni417   1.914       .  S
O394        C403   1.271       .  A
O395       Ni399   1.899       .  S
O395       Ni417   1.906       .  S
O395       Ni411   1.910       .  S
O395        H418   0.966       .  S
C396        C561   1.480       .  S
C396        O413   1.275       .  A
C396        O405   1.277       .  A
O397       Ni416   1.935       .  S
O397        C403   1.273       .  A
O398       Ni416   1.906       .  S
O398        C400   1.269       .  A
Ni399       O402   1.918       .  S
Ni399       O404   1.907       .  S
C400        C681   1.497       .  S
C400        O410   1.277       .  A
O401       Ni417   1.913       .  S
O401        C407   1.274       .  A
O402        C407   1.276       .  A
C403        C609   1.498       .  S
O404        C406   1.269       .  A
O405       Ni416   1.925       .  S
C406        C590   1.497       .  S
C406        O412   1.277       .  A
C407        C638   1.472       .  S
H408        O409   0.966       .  S
O409       Ni417   1.911       .  S
O409       Ni411   1.912       .  S
O409       Ni416   1.900       .  S
O410       Ni411   1.948       .  S
Ni411       O415   1.914       .  S
Ni411       O413   1.917       .  S
O412       Ni417   1.946       .  S
C414        C657   1.486       .  S
C414        O415   1.271       .  A
C419        N420   1.358       .  A
C419        N424   1.353   1_655  A
C419        C830   1.477       .  S
N420        C421   1.362   1_655  A
C421        N422   1.362       .  A
N422        C423   1.362       .  A
C423        N424   1.356       .  A
C423        C662   1.498       .  S
C425        N426   1.357       .  A
C425        N430   1.357       .  A
C425        C633   1.488       .  S
N426        C427   1.357       .  A
C427        N428   1.357   1_554  A
N428        C429   1.356       .  A
C429        N430   1.355   1_556  A
C429       C1262   1.475       .  S
C431        N432   1.361       .  A
C431        N436   1.353       .  A
C431        C801   1.483       .  S
N432        C433   1.364       .  A
C433        N434   1.364       .  A
N434        C435   1.362       .  A
C435        N436   1.352       .  A
C435        C614   1.488       .  S
C437        N438   1.352   1_565  A
C437        N442   1.364       .  A
C437       C1094   1.493       .  S
N438        C439   1.352       .  A
C439        N440   1.359       .  A
C439        C782   1.479       .  S
N440        C441   1.364       .  A
C441        N442   1.368   1_545  A
C443        N444   1.356   1_556  A
C443        N448   1.356       .  A
C443       C1377   1.495       .  S
N444        C445   1.356       .  A
C445        N446   1.359       .  A
C445        C753   1.485       .  S
N446        C447   1.361       .  A
C447        N448   1.358   1_554  A
C449        N450   1.365       .  A
C449        N454   1.357       .  A
C449       C1017   1.490       .  S
N450        C451   1.367       .  A
C451        N452   1.362       .  A
N452        C453   1.360       .  A
C453        N454   1.356       .  A
C453        C729   1.483       .  S
C455        N456   1.358       .  A
C455        N460   1.359       .  A
C455       C1286   1.481       .  S
N456        C457   1.358       .  A
C457        N458   1.357       .  A
N458        C459   1.357       .  A
C459        N460   1.359       .  A
C459        C710   1.486       .  S
C461        N462   1.359       .  A
C461        N466   1.360       .  A
C461        C950   1.489       .  S
N462        C463   1.359       .  A
C463        N464   1.364       .  A
C463        C585   1.494       .  S
N464        C465   1.365       .  A
C465        N466   1.362       .  A
C467        N468   1.361   1_655  A
C467        N472   1.360       .  A
C467       C1118   1.501       .  S
N468        C469   1.359       .  A
C469        N470   1.360       .  A
C469        C921   1.488       .  S
N470        C471   1.359       .  A
C471        N472   1.360   1_455  A
C473        N474   1.355       .  A
C473        N478   1.356       .  A
C473        C902   1.474       .  S
N474        C475   1.354   1_554  A
C475        N476   1.357       .  A
C475       C1526   1.471       .  S
N476        C477   1.358   1_556  A
C477        N478   1.357       .  A
C479        N480   1.358       .  A
C479        N484   1.360       .  A
C479       C1070   1.490       .  S
N480        C481   1.357       .  A
C481        N482   1.360       .  A
C481        C878   1.478       .  S
N482        C483   1.363       .  A
C483        N484   1.359       .  A
C485        N486   1.356       .  A
C485        N490   1.361       .  A
C485       C1425   1.487       .  S
N486        C487   1.355       .  A
C487        N488   1.355       .  A
C487        C849   1.470       .  S
N488        C489   1.356       .  A
C489        N490   1.360       .  A
C491        N492   1.353       .  A
C491        N496   1.355       .  A
C491       C1646   1.465       .  S
N492        C493   1.354       .  A
C493        N494   1.354   1_556  A
N494        C495   1.355       .  A
C495        N496   1.357   1_554  A
C495       C1046   1.478       .  S
C497        N498   1.358       .  A
C497        N502   1.357       .  A
C497       C1238   1.480       .  S
N498        C499   1.358       .  A
C499        N500   1.360       .  A
C499        C566   1.486       .  S
N500        C501   1.361       .  A
C501        N502   1.359       .  A
C503        N504   1.363       .  A
C503        N508   1.355   1_655  A
C503       C1406   1.488       .  S
N504        C505   1.366   1_655  A
C505        N506   1.360       .  A
N506        C507   1.358       .  A
C507        N508   1.353       .  A
C507       C1209   1.477       .  S
C509        N510   1.357   1_565  A
C509        N514   1.360       .  A
C509       C1545   1.493       .  S
N510        C511   1.358       .  A
C511        N512   1.365       .  A
C511       C1190   1.496       .  S
N512        C513   1.367       .  A
C513        N514   1.362   1_545  A
C515        N516   1.361       .  A
C515        N520   1.353       .  A
C515       C1353   1.489       .  S
N516        C517   1.364       .  A
C517        N518   1.366       .  A
N518        C519   1.363       .  A
C519        N520   1.352       .  A
C519       C1166   1.488       .  S
C521        N522   1.357       .  A
C521        N526   1.362       .  A
C521       C1502   1.493       .  S
N522        C523   1.357       .  A
C523        N524   1.366       .  A
C523       C1142   1.500       .  S
N524        C525   1.369       .  A
C525        N526   1.366       .  A
C527        N528   1.366       .  A
C527        N532   1.353       .  A
C527       C1665   1.486       .  S
N528        C529   1.368       .  A
C529        N530   1.363   1_565  A
N530        C531   1.361       .  A
C531        N532   1.354   1_545  A
C531       C1334   1.491       .  S
C533        N534   1.359       .  A
C533        N538   1.356   1_655  A
C533       C1694   1.486       .  S
N534        C535   1.359   1_655  A
C535        N536   1.363       .  A
N536        C537   1.364       .  A
C537        N538   1.357       .  A
C537       C1478   1.499       .  S
C539        N540   1.358       .  A
C539        N544   1.358       .  A
C539       C1617   1.480       .  S
N540        C541   1.359       .  A
C541        N542   1.359       .  A
N542        C543   1.360       .  A
C543        N544   1.357       .  A
C543       C1454   1.485       .  S
C545        N546   1.358       .  A
C545        N550   1.362       .  A
C545       C1598   1.496       .  S
N546        C547   1.356       .  A
C547        N548   1.359       .  A
C547       C1310   1.480       .  S
N548        C549   1.362       .  A
C549        N550   1.364       .  A
C551        N552   1.357       .  A
C551        N556   1.362       .  A
C551       C1574   1.488       .  S
N552        C553   1.356       .  A
C553        N554   1.357       .  A
N554        C555   1.358       .  A
C555        N556   1.362       .  A
C555        C993   1.487       .  S
C557        C558   1.409       .  A
C557        C562   1.399       .  A
C557        C571   1.444       .  S
C558        C559   1.404       .  A
C558        C563   1.485       .  S
C559        C560   1.403       .  A
C559        H578   1.085       .  S
C560        C561   1.414       .  A
C560        C572   1.445       .  S
C561        C562   1.404       .  A
C562        H577   1.085       .  S
C563        C564   1.403       .  A
C563        C568   1.409       .  A
C564        C565   1.406       .  A
C564        H579   1.084       .  S
C565        C566   1.415       .  A
C565        C569   1.443       .  S
C566        C567   1.405       .  A
C567        C568   1.399       .  A
C567        H580   1.084       .  S
C568        C570   1.445       .  S
C569        N573   1.157       .  T
C570        N574   1.157       .  T
C571        N576   1.157       .  T
C572        N575   1.157       .  T
C581        C582   1.410       .  A
C581        C586   1.404       .  A
C581        C595   1.444       .  S
C582        C583   1.408       .  A
C582        C587   1.497       .  S
C583        C584   1.409       .  A
C583        H602   1.085       .  S
C584        C585   1.414       .  A
C584        C596   1.444       .  S
C585        C586   1.407       .  A
C586        H601   1.083       .  S
C587        C588   1.401       .  A
C587        C592   1.414       .  A
C588        C589   1.402       .  A
C588        H603   1.085       .  S
C589        C590   1.419       .  A
C589        C593   1.445       .  S
C590        C591   1.408       .  A
C591        C592   1.409       .  A
C591        H604   1.084       .  S
C592        C594   1.443       .  S
C593        N597   1.157       .  T
C594        N598   1.157       .  T
C595        N600   1.157       .  T
C596        N599   1.157       .  T
C605        C606   1.410       .  A
C605        C610   1.406       .  A
C605        C619   1.444       .  S
C606        C607   1.398       .  A
C606        C611   1.488       .  S
C607        C608   1.400       .  A
C607        H626   1.085       .  S
C608        C609   1.422       .  A
C608        C620   1.444       .  S
C609        C610   1.410       .  A
C610        H625   1.083       .  S
C611        C612   1.400       .  A
C611        C616   1.411       .  A
C612        C613   1.400       .  A
C612        H627   1.085       .  S
C613        C614   1.420       .  A
C613        C617   1.445       .  S
C614        C615   1.405       .  A
C615        C616   1.404       .  A
C615        H628   1.084       .  S
C616        C618   1.443       .  S
C617        N621   1.158       .  T
C618        N622   1.157       .  T
C619        N624   1.157       .  T
C620        N623   1.157       .  T
C629        C630   1.410       .  A
C629        C634   1.402       .  A
C629        C643   1.444       .  S
C630        C631   1.401       .  A
C630        C635   1.485       .  S
C631        C632   1.394       .  A
C631        H650   1.085       .  S
C632        C633   1.418       .  A
C632        C644   1.445       .  S
C633        C634   1.410       .  A
C634        H649   1.084       .  S
C635        C636   1.403       .  A
C635        C640   1.413       .  A
C636        C637   1.398       .  A
C636        H651   1.085       .  S
C637        C638   1.412       .  A
C637        C641   1.445       .  S
C638        C639   1.402       .  A
C639        C640   1.398       .  A
C639        H652   1.085       .  S
C640        C642   1.445       .  S
C641        N645   1.157       .  T
C642        N646   1.157       .  T
C643        N648   1.157       .  T
C644        N647   1.157       .  T
C653        C654   1.412       .  A
C653        C658   1.403       .  A
C653        C667   1.444       .  S
C654        C655   1.399       .  A
C654        C659   1.485       .  S
C655        C656   1.398       .  A
C655        H674   1.085       .  S
C656        C657   1.418       .  A
C656        C668   1.445       .  S
C657        C658   1.406       .  A
C658        H673   1.084       .  S
C659        C660   1.403       .  A
C659        C664   1.406       .  A
C660        C661   1.404       .  A
C660        H675   1.085       .  S
C661        C662   1.419       .  A
C661        C665   1.443       .  S
C662        C663   1.413       .  A
C663        C664   1.398       .  A
C663        H676   1.084       .  S
C664        C666   1.445       .  S
C665        N669   1.157       .  T
C666        N670   1.157       .  T
C667        N672   1.157       .  T
C668        N671   1.157       .  T
C677        C678   1.412       .  A
C677        C682   1.410       .  A
C677        C691   1.443       .  S
C678        C679   1.401       .  A
C678        C683   1.494       .  S
C679        C680   1.403       .  A
C679        H698   1.085       .  S
C680        C681   1.418       .  A
C680        C692   1.445       .  S
C681        C682   1.409       .  A
C682        H697   1.084       .  S
C683        C684   1.400       .  A
C683        C688   1.412       .  A
C684        C685   1.404       .  A
C684        H699   1.085       .  S
C685        C686   1.420       .  A
C685        C689   1.445       .  S
C686        C687   1.407       .  A
C687        C688   1.409       .  A
C687        H700   1.084       .  S
C688        C690   1.443       .  S
C689        N693   1.157       .  T
C690        N694   1.157       .  T
C691        N696   1.157       .  T
C692        N695   1.157       .  T
C701        C702   1.412       .  A
C701        C706   1.406       .  A
C701        C715   1.443       .  S
C702        C703   1.401       .  A
C702        C707   1.486       .  S
C703        C704   1.397       .  A
C703        H722   1.085       .  S
C704        C705   1.411       .  A
C704        C716   1.445       .  S
C705        C706   1.404       .  A
C706        H721   1.085       .  S
C707        C708   1.402       .  A
C707        C712   1.412       .  A
C708        C709   1.404       .  A
C708        H723   1.085       .  S
C709        C710   1.418       .  A
C709        C713   1.444       .  S
C710        C711   1.403       .  A
C711        C712   1.397       .  A
C711        H724   1.084       .  S
C712        C714   1.445       .  S
C713        N717   1.157       .  T
C714        N718   1.157       .  T
C715        N720   1.157       .  T
C716        N719   1.157       .  T
C725        C726   1.409       .  A
C725        C730   1.401       .  A
C725        C739   1.444       .  S
C726        C727   1.404       .  A
C726        C731   1.488       .  S
C727        C728   1.404       .  A
C727        H746   1.085       .  S
C728        C729   1.413       .  A
C728        C740   1.444       .  S
C729        C730   1.406       .  A
C730        H745   1.085       .  S
C731        C732   1.402       .  A
C731        C736   1.412       .  A
C732        C733   1.404       .  A
C732        H747   1.085       .  S
C733        C734   1.417       .  A
C733        C737   1.445       .  S
C734        C735   1.403       .  A
C735        C736   1.400       .  A
C735        H748   1.085       .  S
C736        C738   1.444       .  S
C737        N741   1.157       .  T
C738        N742   1.157       .  T
C739        N744   1.157       .  T
C740        N743   1.157       .  T
C749        C750   1.410       .  A
C749        C754   1.394       .  A
C749        C763   1.445       .  S
C750        C751   1.404       .  A
C750        C755   1.485       .  S
C751        C752   1.406       .  A
C751        H770   1.085       .  S
C752        C753   1.417       .  A
C752        C764   1.444       .  S
C753        C754   1.405       .  A
C754        H769   1.085       .  S
C755        C756   1.402       .  A
C755        C760   1.412       .  A
C756        C757   1.401       .  A
C756        H771   1.085       .  S
C757        C758   1.412       .  A
C757        C761   1.443       .  S
C758        C759   1.402       .  A
C759        C760   1.400       .  A
C759        H772   1.085       .  S
C760        C762   1.444       .  S
C761        N765   1.157       .  T
C762        N766   1.157       .  T
C763        N768   1.157       .  T
C764        N767   1.157       .  T
C773        C774   1.412       .  A
C773        C778   1.400       .  A
C773        C787   1.444       .  S
C774        C775   1.398       .  A
C774        C779   1.483       .  S
C775        C776   1.399       .  A
C775        H794   1.085       .  S
C776        C777   1.419       .  A
C776        C788   1.445       .  S
C777        C778   1.405       .  A
C778        H793   1.085       .  S
C779        C780   1.405       .  A
C779        C784   1.409       .  A
C780        C781   1.405       .  A
C780        H795   1.085       .  S
C781        C782   1.412       .  A
C781        C785   1.443       .  S
C782        C783   1.405       .  A
C783        C784   1.394       .  A
C783        H796   1.085       .  S
C784        C786   1.445       .  S
C785        N789   1.157       .  T
C786        N790   1.157       .  T
C787        N792   1.157       .  T
C788        N791   1.157       .  T
C797        C798   1.412       .  A
C797        C802   1.404       .  A
C797        C811   1.443       .  S
C798        C799   1.399       .  A
C798        C803   1.485       .  S
C799        C800   1.399       .  A
C799        H818   1.085       .  S
C800        C801   1.416       .  A
C800        C812   1.445       .  S
C801        C802   1.404       .  A
C802        H817   1.084       .  S
C803        C804   1.403       .  A
C803        C808   1.409       .  A
C804        C805   1.405       .  A
C804        H819   1.085       .  S
C805        C806   1.417       .  A
C805        C809   1.444       .  S
C806        C807   1.406       .  A
C807        C808   1.398       .  A
C807        H820   1.085       .  S
C808        C810   1.444       .  S
C809        N813   1.157       .  T
C810        N814   1.157       .  T
C811        N816   1.157       .  T
C812        N815   1.157       .  T
C821        C822   1.410       .  A
C821        C826   1.401       .  A
C821        C835   1.444       .  S
C822        C823   1.401       .  A
C822        C827   1.483       .  S
C823        C824   1.402       .  A
C823        H842   1.085       .  S
C824        C825   1.416       .  A
C824        C836   1.445       .  S
C825        C826   1.404       .  A
C826        H841   1.085       .  S
C827        C828   1.401       .  A
C827        C832   1.410       .  A
C828        C829   1.397       .  A
C828        H843   1.085       .  S
C829        C830   1.412       .  A
C829        C833   1.445       .  S
C830        C831   1.404       .  A
C831        C832   1.405       .  A
C831        H844   1.085       .  S
C832        C834   1.443       .  S
C833        N837   1.157       .  T
C834        N838   1.157       .  T
C835        N840   1.157       .  T
C836        N839   1.157       .  T
C845        C846   1.412       .  A
C845        C850   1.397       .  A
C845        C859   1.445       .  S
C846        C847   1.403       .  A
C846        C851   1.482       .  S
C847        C848   1.399       .  A
C847        H866   1.085       .  S
C848        C849   1.412       .  A
C848        C860   1.445       .  S
C849        C850   1.401       .  A
C850        H865   1.085       .  S
C851        C852   1.404       .  A
C851        C856   1.410       .  A
C852        C853   1.394       .  A
C852        H867   1.085       .  S
C853        C854   1.411       .  A
C853        C857   1.445       .  S
C854        C855   1.406       .  A
C855        C856   1.399       .  A
C855        H868   1.085       .  S
C856        C858   1.444       .  S
C857        N861   1.157       .  T
C858        N862   1.157       .  T
C859        N864   1.157       .  T
C860        N863   1.157       .  T
C869        C870   1.412       .  A
C869        C874   1.403       .  A
C869        C883   1.444       .  S
C870        C871   1.402       .  A
C870        C875   1.491       .  S
C871        C872   1.405       .  A
C871        H890   1.085       .  S
C872        C873   1.418       .  A
C872        C884   1.444       .  S
C873        C874   1.406       .  A
C874        H889   1.085       .  S
C875        C876   1.404       .  A
C875        C880   1.412       .  A
C876        C877   1.400       .  A
C876        H891   1.085       .  S
C877        C878   1.409       .  A
C877        C881   1.444       .  S
C878        C879   1.405       .  A
C879        C880   1.408       .  A
C879        H892   1.084       .  S
C880        C882   1.443       .  S
C881        N885   1.157       .  T
C882        N886   1.157       .  T
C883        N888   1.157       .  T
C884        N887   1.157       .  T
C893        C894   1.405       .  A
C893        C898   1.393       .  A
C893        C907   1.445       .  S
C894        C895   1.399       .  A
C894        C899   1.473       .  S
C895        C896   1.400       .  A
C895        H914   1.085       .  S
C896        C897   1.417       .  A
C896        C908   1.443       .  S
C897        C898   1.407       .  A
C898        H913   1.084       .  S
C899        C900   1.401       .  A
C899        C904   1.408       .  A
C900        C901   1.402       .  A
C900        H915   1.085       .  S
C901        C902   1.415       .  A
C901        C905   1.444       .  S
C902        C903   1.402       .  A
C903        C904   1.391       .  A
C903        H916   1.084       .  S
C904        C906   1.446       .  S
C905        N909   1.157       .  T
C906        N910   1.157       .  T
C907        N912   1.157       .  T
C908        N911   1.157       .  T
C917        C918   1.411       .  A
C917        C922   1.402       .  A
C917        C931   1.444       .  S
C918        C919   1.406       .  A
C918        C923   1.495       .  S
C919        C920   1.405       .  A
C919        H938   1.085       .  S
C920        C921   1.415       .  A
C920        C932   1.444       .  S
C921        C922   1.406       .  A
C922        H937   1.085       .  S
C923        C924   1.405       .  A
C923        C928   1.412       .  A
C924        C925   1.402       .  A
C924        H939   1.085       .  S
C925        C926   1.413       .  A
C925        C929   1.444       .  S
C926        C927   1.408       .  A
C927        C928   1.405       .  A
C927        H940   1.085       .  S
C928        C930   1.444       .  S
C929        N933   1.157       .  T
C930        N934   1.157       .  T
C931        N936   1.157       .  T
C932        N935   1.157       .  T
C941        C942   1.415       .  A
C941        C946   1.407       .  A
C941        C955   1.443       .  S
C942        C943   1.402       .  A
C942        C947   1.493       .  S
C943        C944   1.399       .  A
C943        H962   1.085       .  S
C944        C945   1.415       .  A
C944        C956   1.445       .  S
C945        C946   1.405       .  A
C946        H961   1.084       .  S
C947        C948   1.402       .  A
C947        C952   1.414       .  A
C948        C949   1.400       .  A
C948        H963   1.085       .  S
C949        C950   1.414       .  A
C949        C953   1.443       .  S
C950        C951   1.407       .  A
C951        C952   1.407       .  A
C951        H964   1.084       .  S
C952        C954   1.444       .  S
C953        N957   1.157       .  T
C954        N958   1.157       .  T
C955        N960   1.157       .  T
C956        N959   1.157       .  T
C965        C966   1.416       .  A
C965        C970   1.412       .  A
C965        C979   1.443       .  S
C966        C967   1.404       .  A
C966        C971   1.501       .  S
C967        C968   1.402       .  A
C967        H986   1.085       .  S
C968        C969   1.414       .  A
C968        C980   1.444       .  S
C969        C970   1.407       .  A
C970        H985   1.085       .  S
C971        C972   1.404       .  A
C971        C976   1.415       .  A
C972        C973   1.402       .  A
C972        H987   1.085       .  S
C973        C974   1.417       .  A
C973        C977   1.446       .  S
C974        C975   1.407       .  A
C975        C976   1.411       .  A
C975        H988   1.084       .  S
C976        C978   1.442       .  S
C977        N981   1.158   1_565  T
C978        N982   1.157       .  T
C979        N984   1.157       .  T
C980        N983   1.157       .  T
C989        C990   1.411       .  A
C989        C994   1.404       .  A
C989       C1003   1.444       .  S
C990        C991   1.404       .  A
C990        C995   1.490       .  S
C991        C992   1.401       .  A
C991       H1010   1.085       .  S
C992        C993   1.413       .  A
C992       C1004   1.444       .  S
C993        C994   1.407       .  A
C994       H1009   1.085       .  S
C995        C996   1.408       .  A
C995       C1000   1.409       .  A
C996        C997   1.412       .  A
C996       H1011   1.084       .  S
C997        C998   1.416       .  A
C997       C1001   1.443       .  S
C998        C999   1.406       .  A
C999       C1000   1.392       .  A
C999       H1012   1.085       .  S
C1000      C1002   1.446       .  S
C1001      N1005   1.157       .  T
C1002      N1006   1.157       .  T
C1003      N1008   1.157       .  T
C1004      N1007   1.157       .  T
C1013      C1014   1.417       .  A
C1013      C1018   1.408       .  A
C1013      C1027   1.444       .  S
C1014      C1015   1.405       .  A
C1014      C1019   1.503       .  S
C1015      C1016   1.404       .  A
C1015      H1034   1.085       .  S
C1016      C1017   1.415       .  A
C1016      C1028   1.444       .  S
C1017      C1018   1.404       .  A
C1018      H1033   1.085       .  S
C1019      C1020   1.404       .  A
C1019      C1024   1.416       .  A
C1020      C1021   1.405       .  A
C1020      H1035   1.085       .  S
C1021      C1022   1.421       .  A
C1021      C1025   1.445       .  S
C1022      C1023   1.406       .  A
C1023      C1024   1.407       .  A
C1023      H1036   1.085       .  S
C1024      C1026   1.444       .  S
C1025      N1029   1.158       .  T
C1026      N1030   1.157       .  T
C1027      N1032   1.157       .  T
C1028      N1031   1.157       .  T
C1037      C1038   1.409       .  A
C1037      C1042   1.396       .  A
C1037      C1051   1.445       .  S
C1038      C1039   1.400       .  A
C1038      C1043   1.474       .  S
C1039      C1040   1.398       .  A
C1039      H1058   1.085       .  S
C1040      C1041   1.410       .  A
C1040      C1052   1.443       .  S
C1041      C1042   1.402       .  A
C1042      H1057   1.085       .  S
C1043      C1044   1.401       .  A
C1043      C1048   1.405       .  A
C1044      C1045   1.394       .  A
C1044      H1059   1.085       .  S
C1045      C1046   1.413       .  A
C1045      C1049   1.445       .  S
C1046      C1047   1.410       .  A
C1047      C1048   1.399       .  A
C1047      H1060   1.084       .  S
C1048      C1050   1.444       .  S
C1049      N1053   1.157       .  T
C1050      N1054   1.157       .  T
C1051      N1056   1.157       .  T
C1052      N1055   1.157       .  T
C1061      C1062   1.409       .  A
C1061      C1066   1.406       .  A
C1061      C1075   1.444       .  S
C1062      C1063   1.398       .  A
C1062      C1067   1.488       .  S
C1063      C1064   1.398       .  A
C1063      H1082   1.085       .  S
C1064      C1065   1.424       .  A
C1064      C1076   1.445       .  S
C1065      C1066   1.411       .  A
C1066      H1081   1.084       .  S
C1067      C1068   1.402       .  A
C1067      C1072   1.411       .  A
C1068      C1069   1.403       .  A
C1068      H1083   1.085       .  S
C1069      C1070   1.418       .  A
C1069      C1073   1.444       .  S
C1070      C1071   1.407       .  A
C1071      C1072   1.401       .  A
C1071      H1084   1.084       .  S
C1072      C1074   1.444       .  S
C1073      N1077   1.157       .  T
C1074      N1078   1.157       .  T
C1075      N1080   1.157       .  T
C1076      N1079   1.157       .  T
C1085      C1086   1.408       .  A
C1085      C1090   1.401       .  A
C1085      C1099   1.444       .  S
C1086      C1087   1.407       .  A
C1086      C1091   1.497       .  S
C1087      C1088   1.408       .  A
C1087      H1106   1.085       .  S
C1088      C1089   1.418       .  A
C1088      C1100   1.444       .  S
C1089      C1090   1.412       .  A
C1090      H1105   1.084       .  S
C1091      C1092   1.409       .  A
C1091      C1096   1.410       .  A
C1092      C1093   1.409       .  A
C1092      H1107   1.084       .  S
C1093      C1094   1.413       .  A
C1093      C1097   1.443       .  S
C1094      C1095   1.409       .  A
C1095      C1096   1.399       .  A
C1095      H1108   1.085       .  S
C1096      C1098   1.445       .  S
C1097      N1101   1.157       .  T
C1098      N1102   1.157       .  T
C1099      N1104   1.157       .  T
C1100      N1103   1.157       .  T
C1109      C1110   1.410       .  A
C1109      C1114   1.402       .  A
C1109      C1123   1.443       .  S
C1110      C1111   1.399       .  A
C1110      C1115   1.488       .  S
C1111      C1112   1.401       .  A
C1111      H1130   1.085       .  S
C1112      C1113   1.423       .  A
C1112      C1124   1.445       .  S
C1113      C1114   1.409       .  A
C1114      H1129   1.084       .  S
C1115      C1116   1.402       .  A
C1115      C1120   1.408       .  A
C1116      C1117   1.405       .  A
C1116      H1131   1.085       .  S
C1117      C1118   1.422       .  A
C1117      C1121   1.444       .  S
C1118      C1119   1.411       .  A
C1119      C1120   1.400       .  A
C1119      H1132   1.084       .  S
C1120      C1122   1.445       .  S
C1121      N1125   1.158       .  T
C1122      N1126   1.157       .  T
C1123      N1128   1.157       .  T
C1124      N1127   1.158       .  T
C1133      C1134   1.416       .  A
C1133      C1138   1.411       .  A
C1133      C1147   1.443       .  S
C1134      C1135   1.402       .  A
C1134      C1139   1.506       .  S
C1135      C1136   1.405       .  A
C1135      H1154   1.085       .  S
C1136      C1137   1.425       .  A
C1136      C1148   1.446       .  S
C1137      C1138   1.409       .  A
C1138      H1153   1.084       .  S
C1139      C1140   1.402       .  A
C1139      C1144   1.418       .  A
C1140      C1141   1.404       .  A
C1140      H1155   1.085       .  S
C1141      C1142   1.419       .  A
C1141      C1145   1.444       .  S
C1142      C1143   1.407       .  A
C1143      C1144   1.411       .  A
C1143      H1156   1.084       .  S
C1144      C1146   1.443       .  S
C1145      N1149   1.157       .  T
C1146      N1150   1.157       .  T
C1147      N1152   1.157       .  T
C1148      N1151   1.158       .  T
C1157      C1158   1.416       .  A
C1157      C1162   1.406       .  A
C1157      C1171   1.444       .  S
C1158      C1159   1.402       .  A
C1158      C1163   1.497       .  S
C1159      C1160   1.402       .  A
C1159      H1178   1.085       .  S
C1160      C1161   1.418       .  A
C1160      C1172   1.445       .  S
C1161      C1162   1.403       .  A
C1162      H1177   1.085       .  S
C1163      C1164   1.402       .  A
C1163      C1168   1.416       .  A
C1164      C1165   1.400       .  A
C1164      H1179   1.085       .  S
C1165      C1166   1.418       .  A
C1165      C1169   1.445       .  S
C1166      C1167   1.404       .  A
C1167      C1168   1.406       .  A
C1167      H1180   1.085       .  S
C1168      C1170   1.443       .  S
C1169      N1173   1.157       .  T
C1170      N1174   1.157       .  T
C1171      N1176   1.157       .  T
C1172      N1175   1.157       .  T
C1181      C1182   1.412       .  A
C1181      C1186   1.403       .  A
C1181      C1195   1.444       .  S
C1182      C1183   1.408       .  A
C1182      C1187   1.504       .  S
C1183      C1184   1.409       .  A
C1183      H1202   1.085       .  S
C1184      C1185   1.419       .  A
C1184      C1196   1.443       .  S
C1185      C1186   1.412       .  A
C1186      H1201   1.084       .  S
C1187      C1188   1.403       .  A
C1187      C1192   1.418       .  A
C1188      C1189   1.403       .  A
C1188      H1203   1.085       .  S
C1189      C1190   1.416       .  A
C1189      C1193   1.444       .  S
C1190      C1191   1.406       .  A
C1191      C1192   1.410       .  A
C1191      H1204   1.084       .  S
C1192      C1194   1.444       .  S
C1193      N1197   1.157       .  T
C1194      N1198   1.157       .  T
C1195      N1200   1.157       .  T
C1196      N1199   1.157       .  T
C1205      C1206   1.410       .  A
C1205      C1210   1.401       .  A
C1205      C1219   1.443       .  S
C1206      C1207   1.400       .  A
C1206      C1211   1.480       .  S
C1207      C1208   1.399       .  A
C1207      H1226   1.085       .  S
C1208      C1209   1.414       .  A
C1208      C1220   1.445       .  S
C1209      C1210   1.403       .  A
C1210      H1225   1.085       .  S
C1211      C1212   1.398       .  A
C1211      C1216   1.409       .  A
C1212      C1213   1.398       .  A
C1212      H1227   1.085       .  S
C1213      C1214   1.417       .  A
C1213      C1217   1.445       .  S
C1214      C1215   1.406       .  A
C1215      C1216   1.403       .  A
C1215      H1228   1.084       .  S
C1216      C1218   1.443       .  S
C1217      N1221   1.157       .  T
C1218      N1222   1.157       .  T
C1219      N1224   1.157       .  T
C1220      N1223   1.157       .  T
C1229      C1230   1.410       .  A
C1229      C1234   1.399       .  A
C1229      C1243   1.444       .  S
C1230      C1231   1.402       .  A
C1230      C1235   1.482       .  S
C1231      C1232   1.403       .  A
C1231      H1250   1.085       .  S
C1232      C1233   1.416       .  A
C1232      C1244   1.445       .  S
C1233      C1234   1.404       .  A
C1234      H1249   1.085       .  S
C1235      C1236   1.401       .  A
C1235      C1240   1.410       .  A
C1236      C1237   1.398       .  A
C1236      H1251   1.085       .  S
C1237      C1238   1.412       .  A
C1237      C1241   1.444       .  S
C1238      C1239   1.406       .  A
C1239      C1240   1.404       .  A
C1239      H1252   1.085       .  S
C1240      C1242   1.444       .  S
C1241      N1245   1.157       .  T
C1242      N1246   1.157       .  T
C1243      N1248   1.157       .  T
C1244      N1247   1.157       .  T
C1253      C1254   1.409       .  A
C1253      C1258   1.400       .  A
C1253      C1267   1.444       .  S
C1254      C1255   1.402       .  A
C1254      C1259   1.481       .  S
C1255      C1256   1.400       .  A
C1255      H1274   1.085       .  S
C1256      C1257   1.413       .  A
C1256      C1268   1.444       .  S
C1257      C1258   1.404       .  A
C1258      H1273   1.085       .  S
C1259      C1260   1.402       .  A
C1259      C1264   1.409       .  A
C1260      C1261   1.397       .  A
C1260      H1275   1.085       .  S
C1261      C1262   1.411       .  A
C1261      C1265   1.444       .  S
C1262      C1263   1.405       .  A
C1263      C1264   1.401       .  A
C1263      H1276   1.085       .  S
C1264      C1266   1.443       .  S
C1265      N1269   1.157       .  T
C1266      N1270   1.157       .  T
C1267      N1272   1.157       .  T
C1268      N1271   1.157       .  T
C1277      C1278   1.409       .  A
C1277      C1282   1.400       .  A
C1277      C1291   1.443       .  S
C1278      C1279   1.401       .  A
C1278      C1283   1.477       .  S
C1279      C1280   1.398       .  A
C1279      H1298   1.085       .  S
C1280      C1281   1.409       .  A
C1280      C1292   1.444       .  S
C1281      C1282   1.402       .  A
C1282      H1297   1.085       .  S
C1283      C1284   1.401       .  A
C1283      C1288   1.406       .  A
C1284      C1285   1.397       .  A
C1284      H1299   1.085       .  S
C1285      C1286   1.413       .  A
C1285      C1289   1.444       .  S
C1286      C1287   1.409       .  A
C1287      C1288   1.402       .  A
C1287      H1300   1.084       .  S
C1288      C1290   1.443       .  S
C1289      N1293   1.157       .  T
C1290      N1294   1.157       .  T
C1291      N1296   1.157       .  T
C1292      N1295   1.157       .  T
C1301      C1302   1.410       .  A
C1301      C1306   1.403       .  A
C1301      C1315   1.444       .  S
C1302      C1303   1.405       .  A
C1302      C1307   1.494       .  S
C1303      C1304   1.401       .  A
C1303      H1322   1.085       .  S
C1304      C1305   1.414       .  A
C1304      C1316   1.443       .  S
C1305      C1306   1.410       .  A
C1306      H1321   1.085       .  S
C1307      C1308   1.408       .  A
C1307      C1312   1.412       .  A
C1308      C1309   1.406       .  A
C1308      H1323   1.084       .  S
C1309      C1310   1.411       .  A
C1309      C1313   1.444       .  S
C1310      C1311   1.403       .  A
C1311      C1312   1.399       .  A
C1311      H1324   1.085       .  S
C1312      C1314   1.444       .  S
C1313      N1317   1.157       .  T
C1314      N1318   1.157       .  T
C1315      N1320   1.157       .  T
C1316      N1319   1.157       .  T
C1325      C1326   1.406       .  A
C1325      C1330   1.399       .  A
C1325      C1339   1.444       .  S
C1326      C1327   1.404       .  A
C1326      C1331   1.488       .  S
C1327      C1328   1.404       .  A
C1327      H1346   1.085       .  S
C1328      C1329   1.419       .  A
C1328      C1340   1.443       .  S
C1329      C1330   1.413       .  A
C1330      H1345   1.084       .  S
C1331      C1332   1.405       .  A
C1331      C1336   1.408       .  A
C1332      C1333   1.406       .  A
C1332      H1347   1.085       .  S
C1333      C1334   1.417       .  A
C1333      C1337   1.443       .  S
C1334      C1335   1.408       .  A
C1335      C1336   1.397       .  A
C1335      H1348   1.085       .  S
C1336      C1338   1.445       .  S
C1337      N1341   1.157       .  T
C1338      N1342   1.157       .  T
C1339      N1344   1.157       .  T
C1340      N1343   1.157       .  T
C1349      C1350   1.413       .  A
C1349      C1354   1.405       .  A
C1349      C1363   1.444       .  S
C1350      C1351   1.400       .  A
C1350      C1355   1.490       .  S
C1351      C1352   1.396       .  A
C1351      H1370   1.085       .  S
C1352      C1353   1.419       .  A
C1352      C1364   1.445       .  S
C1353      C1354   1.407       .  A
C1354      H1369   1.084       .  S
C1355      C1356   1.401       .  A
C1355      C1360   1.416       .  A
C1356      C1357   1.398       .  A
C1356      H1371   1.085       .  S
C1357      C1358   1.417       .  A
C1357      C1361   1.446       .  S
C1358      C1359   1.402       .  A
C1359      C1360   1.403       .  A
C1359      H1372   1.085       .  S
C1360      C1362   1.444       .  S
C1361      N1365   1.157       .  T
C1362      N1366   1.157       .  T
C1363      N1368   1.157       .  T
C1364      N1367   1.157       .  T
C1373      C1374   1.408       .  A
C1373      C1378   1.395       .  A
C1373      C1387   1.445       .  S
C1374      C1375   1.401       .  A
C1374      C1379   1.483       .  S
C1375      C1376   1.405       .  A
C1375      H1394   1.085       .  S
C1376      C1377   1.422       .  A
C1376      C1388   1.444       .  S
C1377      C1378   1.409       .  A
C1378      H1393   1.084       .  S
C1379      C1380   1.405       .  A
C1379      C1384   1.409       .  A
C1380      C1381   1.402       .  A
C1380      H1395   1.085       .  S
C1381      C1382   1.408       .  A
C1381      C1385   1.442       .  S
C1382      C1383   1.403       .  A
C1383      C1384   1.399       .  A
C1383      H1396   1.085       .  S
C1384      C1386   1.444       .  S
C1385      N1389   1.157       .  T
C1386      N1390   1.157       .  T
C1387      N1392   1.157       .  T
C1388      N1391   1.158       .  T
C1397      C1398   1.411       .  A
C1397      C1402   1.403       .  A
C1397      C1411   1.444       .  S
C1398      C1399   1.402       .  A
C1398      C1403   1.492       .  S
C1399      C1400   1.404       .  A
C1399      H1418   1.085       .  S
C1400      C1401   1.420       .  A
C1400      C1412   1.443       .  S
C1401      C1402   1.408       .  A
C1402      H1417   1.084       .  S
C1403      C1404   1.400       .  A
C1403      C1408   1.414       .  A
C1404      C1405   1.398       .  A
C1404      H1419   1.085       .  S
C1405      C1406   1.417       .  A
C1405      C1409   1.445       .  S
C1406      C1407   1.406       .  A
C1407      C1408   1.407       .  A
C1407      H1420   1.084       .  S
C1408      C1410   1.443       .  S
C1409      N1413   1.157       .  T
C1410      N1414   1.157       .  T
C1411      N1416   1.157       .  T
C1412      N1415   1.157       .  T
C1421      C1422   1.410       .  A
C1421      C1426   1.402       .  A
C1421      C1435   1.443       .  S
C1422      C1423   1.402       .  A
C1422      C1427   1.488       .  S
C1423      C1424   1.400       .  A
C1423      H1442   1.085       .  S
C1424      C1425   1.417       .  A
C1424      C1436   1.445       .  S
C1425      C1426   1.407       .  A
C1426      H1441   1.084       .  S
C1427      C1428   1.405       .  A
C1427      C1432   1.409       .  A
C1428      C1429   1.404       .  A
C1428      H1443   1.085       .  S
C1429      C1430   1.415       .  A
C1429      C1433   1.444       .  S
C1430      C1431   1.407       .  A
C1431      C1432   1.399       .  A
C1431      H1444   1.085       .  S
C1432      C1434   1.444       .  S
C1433      N1437   1.157       .  T
C1434      N1438   1.157       .  T
C1435      N1440   1.157       .  T
C1436      N1439   1.157       .  T
C1445      C1446   1.412       .  A
C1445      C1450   1.401       .  A
C1445      C1459   1.444       .  S
C1446      C1447   1.407       .  A
C1446      C1451   1.493       .  S
C1447      C1448   1.402       .  A
C1447      H1466   1.085       .  S
C1448      C1449   1.412       .  A
C1448      C1460   1.445       .  S
C1449      C1450   1.405       .  A
C1450      H1465   1.085       .  S
C1451      C1452   1.406       .  A
C1451      C1456   1.411       .  A
C1452      C1453   1.402       .  A
C1452      H1467   1.085       .  S
C1453      C1454   1.414       .  A
C1453      C1457   1.444       .  S
C1454      C1455   1.406       .  A
C1455      C1456   1.402       .  A
C1455      H1468   1.085       .  S
C1456      C1458   1.444       .  S
C1457      N1461   1.157       .  T
C1458      N1462   1.157       .  T
C1459      N1464   1.157       .  T
C1460      N1463   1.157       .  T
C1469      C1470   1.407       .  A
C1469      C1474   1.398       .  A
C1469      C1483   1.445       .  S
C1470      C1471   1.406       .  A
C1470      C1475   1.491       .  S
C1471      C1472   1.409       .  A
C1471      H1490   1.085       .  S
C1472      C1473   1.419       .  A
C1472      C1484   1.444       .  S
C1473      C1474   1.411       .  A
C1474      H1489   1.084       .  S
C1475      C1476   1.404       .  A
C1475      C1480   1.407       .  A
C1476      C1477   1.405       .  A
C1476      H1491   1.085       .  S
C1477      C1478   1.418       .  A
C1477      C1481   1.443       .  S
C1478      C1479   1.412       .  A
C1479      C1480   1.401       .  A
C1479      H1492   1.084       .  S
C1480      C1482   1.445       .  S
C1481      N1485   1.157       .  T
C1482      N1486   1.157       .  T
C1483      N1488   1.157       .  T
C1484      N1487   1.157       .  T
C1493      C1494   1.411       .  A
C1493      C1498   1.409       .  A
C1493      C1507   1.443       .  S
C1494      C1495   1.400       .  A
C1494      C1499   1.492       .  S
C1495      C1496   1.402       .  A
C1495      H1514   1.085       .  S
C1496      C1497   1.418       .  A
C1496      C1508   1.444       .  S
C1497      C1498   1.410       .  A
C1498      H1513   1.084       .  S
C1499      C1500   1.407       .  A
C1499      C1504   1.408       .  A
C1500      C1501   1.411       .  A
C1500      H1515   1.084       .  S
C1501      C1502   1.416       .  A
C1501      C1505   1.443       .  S
C1502      C1503   1.406       .  A
C1503      C1504   1.399       .  A
C1503      H1516   1.082       .  S
C1504      C1506   1.444       .  S
C1505      N1509   1.157       .  T
C1506      N1510   1.157       .  T
C1507      N1512   1.157       .  T
C1508      N1511   1.157       .  T
C1517      C1518   1.404       .  A
C1517      C1522   1.395       .  A
C1517      C1531   1.444       .  S
C1518      C1519   1.399       .  A
C1518      C1523   1.473       .  S
C1519      C1520   1.400       .  A
C1519      H1538   1.085       .  S
C1520      C1521   1.419       .  A
C1520      C1532   1.445       .  S
C1521      C1522   1.410       .  A
C1522      H1537   1.084       .  S
C1523      C1524   1.400       .  A
C1523      C1528   1.407       .  A
C1524      C1525   1.397       .  A
C1524      H1539   1.085       .  S
C1525      C1526   1.413       .  A
C1525      C1529   1.445       .  S
C1526      C1527   1.403       .  A
C1527      C1528   1.399       .  A
C1527      H1540   1.085       .  S
C1528      C1530   1.443       .  S
C1529      N1533   1.157       .  T
C1530      N1534   1.157       .  T
C1531      N1536   1.157       .  T
C1532      N1535   1.158       .  T
C1541      C1542   1.408       .  A
C1541      C1546   1.399       .  A
C1541      C1555   1.444       .  S
C1542      C1543   1.403       .  A
C1542      C1547   1.488       .  S
C1543      C1544   1.408       .  A
C1543      H1562   1.084       .  S
C1544      C1545   1.418       .  A
C1544      C1556   1.444       .  S
C1545      C1546   1.407       .  A
C1546      H1561   1.084       .  S
C1547      C1548   1.404       .  A
C1547      C1552   1.407       .  A
C1548      C1549   1.409       .  A
C1548      H1563   1.084       .  S
C1549      C1550   1.418       .  A
C1549      C1553   1.443       .  S
C1550      C1551   1.411       .  A
C1551      C1552   1.397       .  A
C1551      H1564   1.084       .  S
C1552      C1554   1.445       .  S
C1553      N1557   1.157       .  T
C1554      N1558   1.157       .  T
C1555      N1560   1.157       .  T
C1556      N1559   1.157       .  T
C1565      C1566   1.410       .  A
C1565      C1570   1.400       .  A
C1565      C1579   1.443       .  S
C1566      C1567   1.403       .  A
C1566      C1571   1.483       .  S
C1567      C1568   1.401       .  A
C1567      H1586   1.085       .  S
C1568      C1569   1.409       .  A
C1568      C1580   1.444       .  S
C1569      C1570   1.401       .  A
C1570      H1585   1.085       .  S
C1571      C1572   1.402       .  A
C1571      C1576   1.406       .  A
C1572      C1573   1.399       .  A
C1572      H1587   1.085       .  S
C1573      C1574   1.415       .  A
C1573      C1577   1.444       .  S
C1574      C1575   1.411       .  A
C1575      C1576   1.403       .  A
C1575      H1588   1.085       .  S
C1576      C1578   1.444       .  S
C1577      N1581   1.157       .  T
C1578      N1582   1.157       .  T
C1579      N1584   1.157       .  T
C1580      N1583   1.157       .  T
C1589      C1590   1.410       .  A
C1589      C1594   1.404       .  A
C1589      C1603   1.444       .  S
C1590      C1591   1.404       .  A
C1590      C1595   1.497       .  S
C1591      C1592   1.404       .  A
C1591      H1610   1.085       .  S
C1592      C1593   1.420       .  A
C1592      C1604   1.444       .  S
C1593      C1594   1.413       .  A
C1594      H1609   1.084       .  S
C1595      C1596   1.407       .  A
C1595      C1600   1.411       .  A
C1596      C1597   1.409       .  A
C1596      H1611   1.084       .  S
C1597      C1598   1.417       .  A
C1597      C1601   1.443       .  S
C1598      C1599   1.408       .  A
C1599      C1600   1.399       .  A
C1599      H1612   1.084       .  S
C1600      C1602   1.445       .  S
C1601      N1605   1.157       .  T
C1602      N1606   1.157       .  T
C1603      N1608   1.157       .  T
C1604      N1607   1.157       .  T
C1613      C1614   1.413       .  A
C1613      C1618   1.404       .  A
C1613      C1627   1.444       .  S
C1614      C1615   1.400       .  A
C1614      C1619   1.485       .  S
C1615      C1616   1.398       .  A
C1615      H1634   1.085       .  S
C1616      C1617   1.413       .  A
C1616      C1628   1.444       .  S
C1617      C1618   1.405       .  A
C1618      H1633   1.085       .  S
C1619      C1620   1.404       .  A
C1619      C1624   1.408       .  A
C1620      C1621   1.405       .  A
C1620      H1635   1.085       .  S
C1621      C1622   1.417       .  A
C1621      C1625   1.444       .  S
C1622      C1623   1.408       .  A
C1623      C1624   1.397       .  A
C1623      H1636   1.085       .  S
C1624      C1626   1.445       .  S
C1625      N1629   1.157       .  T
C1626      N1630   1.157       .  T
C1627      N1632   1.157       .  T
C1628      N1631   1.157       .  T
C1637      C1638   1.410       .  A
C1637      C1642   1.397       .  A
C1637      C1651   1.444       .  S
C1638      C1639   1.402       .  A
C1638      C1643   1.477       .  S
C1639      C1640   1.398       .  A
C1639      H1658   1.085       .  S
C1640      C1641   1.409       .  A
C1640      C1652   1.445       .  S
C1641      C1642   1.400       .  A
C1642      H1657   1.085       .  S
C1643      C1644   1.402       .  A
C1643      C1648   1.412       .  A
C1644      C1645   1.399       .  A
C1644      H1659   1.085       .  S
C1645      C1646   1.411       .  A
C1645      C1649   1.444       .  S
C1646      C1647   1.399       .  A
C1647      C1648   1.395       .  A
C1647      H1660   1.085       .  S
C1648      C1650   1.445       .  S
C1649      N1653   1.157       .  T
C1650      N1654   1.157       .  T
C1651      N1656   1.157       .  T
C1652      N1655   1.157       .  T
C1661      C1662   1.412       .  A
C1661      C1666   1.402       .  A
C1661      C1675   1.445       .  S
C1662      C1663   1.406       .  A
C1662      C1667   1.495       .  S
C1663      C1664   1.408       .  A
C1663      H1682   1.084       .  S
C1664      C1665   1.412       .  A
C1664      C1676   1.443       .  S
C1665      C1666   1.406       .  A
C1666      H1681   1.085       .  S
C1667      C1668   1.401       .  A
C1667      C1672   1.414       .  A
C1668      C1669   1.403       .  A
C1668      H1683   1.085       .  S
C1669      C1670   1.419       .  A
C1669      C1673   1.445       .  S
C1670      C1671   1.406       .  A
C1671      C1672   1.406       .  A
C1671      H1684   1.085       .  S
C1672      C1674   1.444       .  S
C1673      N1677   1.157       .  T
C1674      N1678   1.157       .  T
C1675      N1680   1.157       .  T
C1676      N1679   1.157       .  T
C1685      C1686   1.411       .  A
C1685      C1690   1.399       .  A
C1685      C1699   1.444       .  S
C1686      C1687   1.402       .  A
C1686      C1691   1.484       .  S
C1687      C1688   1.401       .  A
C1687      H1706   1.085       .  S
C1688      C1689   1.416       .  A
C1688      C1700   1.444       .  S
C1689      C1690   1.404       .  A
C1690      H1705   1.083       .  S
C1691      C1692   1.400       .  A
C1691      C1696   1.410       .  A
C1692      C1693   1.397       .  A
C1692      H1707   1.085       .  S
C1693      C1694   1.417       .  A
C1693      C1697   1.445       .  S
C1694      C1695   1.407       .  A
C1695      C1696   1.403       .  A
C1695      H1708   1.084       .  S
C1696      C1698   1.443       .  S
C1697      N1701   1.157       .  T
C1698      N1702   1.157       .  T
C1699      N1704   1.157       .  T
C1700      N1703   1.157       .  T
