geometry optimzed in LAMMPS
_audit_creation_date              2020-11-30 
_audit_creation_method            'lammps2cif' 
_symmetry_space_group_name_H-M    'P1' 
_symmetry_Int_Tables_number       1 
_symmetry_cell_setting            triclinic 
loop_ 
_symmetry_equiv_pos_as_xyz 
  x,y,z 
_cell_length_a                    37.47879485 
_cell_length_b                    35.16269186633343 
_cell_length_c                    37.06660595121262 
_cell_angle_alpha                 89.3860623747347 
_cell_angle_beta                  89.9385505195596 
_cell_angle_gamma                 90.3583845738536 
loop_ 
_atom_site_label 
_atom_site_type_symbol 
_atom_site_fract_x 
_atom_site_fract_y 
_atom_site_fract_z 
_atom_site_charge 
O1          O  0.48518651  0.03513073  0.53715892    -0.75100
O2          O  0.47530132  0.95624348  0.46531171    -0.75200
O3          O  0.47288399  0.95905746  0.53920932    -0.75200
O4          O  0.48636420  0.03249736  0.46268986    -0.75300
O5          O  0.54500221  0.02257861  0.46366087    -0.75200
O6          O  0.53169325  0.95077578  0.54257808    -0.75200
O7          O  0.53394248  0.94668697  0.46913831    -0.75200
O8          O  0.54405558  0.02641800  0.53726391    -0.75200
Ni9        Ni  0.47781528  0.99617565  0.50103178     1.25400
Ni10       Ni  0.54068795  0.98628729  0.50320981     1.25400
C11         C  0.51644427  0.04303617  0.54949032     0.87000
C12         C  0.50359665  0.93874032  0.45533459     0.87000
C13         C  0.49997319  0.94342676  0.55410078     0.87000
C14         C  0.51759602  0.03878350  0.44965224     0.87200
O15         O  0.97306119  0.46197604  0.47826289    -0.75100
O16         O  0.03566937  0.54579449  0.45791803    -0.75200
O17         O  0.04464380  0.47097003  0.47279339    -0.75200
O18         O  0.96429190  0.53595089  0.46300611    -0.75300
O19         O  0.96674111  0.54735685  0.52209264    -0.75200
O20         O  0.04792998  0.48323250  0.53164210    -0.75200
O21         O  0.03781694  0.55786450  0.51684794    -0.75200
O22         O  0.97633892  0.47358680  0.53724850    -0.75200
Ni23       Ni  0.00446828  0.50313389  0.46587231     1.25400
Ni24       Ni  0.00745272  0.51597110  0.52904665     1.25400
C25         C  0.96326903  0.45506462  0.51087085     0.87000
C26         C  0.04661844  0.56598956  0.48425639     0.87000
C27         C  0.05943768  0.46626802  0.50363871     0.87000
C28         C  0.95182273  0.55158726  0.49123015     0.87200
O29         O  0.55546361  0.46177464  0.03825728    -0.75100
O30         O  0.48452148  0.47516044  0.96243866    -0.75200
O31         O  0.55630039  0.46224402  0.96427525    -0.75200
O32         O  0.48357475  0.47190998  0.03642628    -0.75300
O33         O  0.49229432  0.53457109  0.03795895    -0.75200
O34         O  0.56575870  0.52483901  0.96438160    -0.75200
O35         O  0.49399094  0.53770062  0.96419853    -0.75200
O36         O  0.56427195  0.52445307  0.03841235    -0.75200
Ni37       Ni  0.51965220  0.46556517  0.00027399     1.25400
Ni38       Ni  0.52942785  0.53256291  0.00123102     1.25400
C39         C  0.57114635  0.49135679  0.05119974     0.87000
C40         C  0.47770228  0.50907864  0.95085982     0.87000
C41         C  0.57294834  0.49155101  0.95216411     0.87000
C42         C  0.47604610  0.50443184  0.04951034     0.87200
O43         O  0.04830620  0.47290270  0.02933785    -0.75100
O44         O  0.04416921  0.55320581  0.95784989    -0.75200
O45         O  0.05340144  0.55008457  0.03120190    -0.75200
O46         O  0.03834827  0.47622315  0.95587216    -0.75300
O47         O  0.97966212  0.47967160  0.96485094    -0.75200
O48         O  0.99453989  0.55406699  0.03845986    -0.75200
O49         O  0.98527720  0.55649474  0.96549833    -0.75200
O50         O  0.98963546  0.47733384  0.03792340    -0.75200
Ni51       Ni  0.04818158  0.51291478  0.99327789     1.25400
Ni52       Ni  0.98526744  0.51700518  0.00194484     1.25400
C53         C  0.01984265  0.46254612  0.04608224     0.87000
C54         C  0.01390687  0.56767029  0.94950514     0.87000
C55         C  0.02623350  0.56399910  0.04747773     0.87000
C56         C  0.00631997  0.46628689  0.94761263     0.87200
O57         O  0.52830774  0.04765833  0.96045093    -0.75100
O58         O  0.47903894  0.95459524  0.97939205    -0.75200
O59         O  0.45998631  0.02863428  0.97516436    -0.75200
O60         O  0.54698844  0.97415414  0.96482385    -0.75300
O61         O  0.55653724  0.98037053  0.02389885    -0.75200
O62         O  0.46928107  0.03405481  0.03437482    -0.75200
O63         O  0.48845330  0.96015879  0.03855429    -0.75200
O64         O  0.53733324  0.05359866  0.01964031    -0.75200
Ni65       Ni  0.50300644  0.00103734  0.96787106     1.25400
Ni66       Ni  0.51319340  0.00728987  0.03125691     1.25400
C67         C  0.54197202  0.06526049  0.98707020     0.87000
C68         C  0.47625588  0.94165208  0.01172549     0.87000
C69         C  0.45068129  0.04083391  0.00622360     0.87000
C70         C  0.56625502  0.96865994  0.99278806     0.87200
O71         O  0.76659007  0.77466999  0.86635394    -0.81600
O72         O  0.79745565  0.70789636  0.70951446    -0.66300
O73         O  0.78851669  0.76819347  0.79494156    -1.12900
C74         C  0.68067478  0.80893368  0.74658119     1.05300
O75         O  0.75905257  0.73922322  0.67426746    -0.79500
O76         O  0.77412612  0.80579732  0.70766222    -0.67100
Ni77       Ni  0.79918852  0.74384688  0.83977075     1.34900
C78         C  0.77633391  0.83036100  0.73247492     0.84000
O79         O  0.84333228  0.72749416  0.76266279    -0.80100
O80         O  0.83504526  0.71095125  0.81998534    -0.90300
C81         C  0.78218865  0.71361827  0.67919739     0.83600
O82         O  0.76292018  0.70706515  0.83243255    -0.68500
O83         O  0.70326745  0.81353282  0.72155534    -0.87800
C84         C  0.76169569  0.68352511  0.80672790     0.84400
C85         C  0.85504824  0.71404763  0.79237595     1.06000
H86         H  0.72850525  0.72741924  0.74807536     0.37800
O87         O  0.74371452  0.74948718  0.74534198    -1.10500
O88         O  0.75791705  0.82740309  0.76165072    -0.67100
Ni89       Ni  0.73942692  0.78145161  0.78634816     1.26300
O90         O  0.77797236  0.68965006  0.77678109    -0.67400
O91         O  0.68980816  0.79265628  0.77586089    -0.79600
C92         C  0.74529127  0.80202590  0.86039746     0.83800
O93         O  0.73538430  0.81155616  0.82880759    -0.66800
Ni94       Ni  0.73299881  0.77512911  0.70107974     1.27400
Ni95       Ni  0.79338524  0.73717190  0.75306865     1.26100
H96         H  0.80397918  0.79016364  0.79255206     0.38300
O97         O  0.28176757  0.66043836  0.74853704    -0.81600
O98         O  0.21473885  0.82440732  0.70997189    -0.66300
O99         O  0.27359128  0.73524570  0.72187861    -1.12900
C100        C  0.31476200  0.79107379  0.82730494     1.05300
O101        O  0.25350319  0.86527698  0.73368486    -0.79500
O102        O  0.31775790  0.82867893  0.73335163    -0.67100
Ni103      Ni  0.25059276  0.68685795  0.71555734     1.34900
C104        C  0.33981058  0.80139464  0.73475132     0.84000
O105        O  0.22941867  0.76561467  0.66794423    -0.80100
O106        O  0.21693222  0.70493376  0.67985581    -0.90300
C107        C  0.22558060  0.85835886  0.71510654     0.83600
O108        O  0.21789736  0.69618568  0.75357906    -0.68500
O109        O  0.31400956  0.82093122  0.80746499    -0.87800
C110        C  0.19537205  0.72302148  0.75446807     0.84400
C111        C  0.21511680  0.73422661  0.65953081     1.06000
H112        H  0.23919798  0.79011012  0.78027234     0.37800
O113        O  0.25896335  0.79128876  0.76348511    -1.10500
O114        O  0.33264527  0.77024617  0.75165392    -0.67100
Ni115      Ni  0.28816025  0.74710663  0.77028704     1.26300
O116        O  0.20019561  0.75440892  0.73697945    -0.67400
O117        O  0.29992383  0.76022687  0.81831660    -0.79600
C118        C  0.30725674  0.66756332  0.77013745     0.83800
O119        O  0.31587392  0.70150238  0.77801822    -0.66800
Ni120      Ni  0.28276048  0.83926551  0.76921602     1.27400
Ni121      Ni  0.24313057  0.77893194  0.71588261     1.26100
H122        H  0.29350876  0.73729702  0.70543652     0.38300
O123        O  0.78685807  0.26635487  0.66540113    -0.81600
O124        O  0.72739058  0.19156073  0.80302926    -0.66300
O125        O  0.74157604  0.25986456  0.72284684    -1.12900
C126        C  0.84135136  0.30168191  0.79374332     1.05300
O127        O  0.73286310  0.24205315  0.83716944    -0.79500
O128        O  0.75686126  0.31118392  0.82233733    -0.67100
Ni129      Ni  0.74200622  0.24220047  0.67458806     1.34900
C130        C  0.74840947  0.33212915  0.79572920     0.84000
O131        O  0.69104413  0.20322690  0.74046450    -0.80100
O132        O  0.69705823  0.21641119  0.68105597    -0.90300
C133        C  0.72506765  0.20717986  0.83378905     0.83600
O134        O  0.76731036  0.19611571  0.68140831    -0.68500
O135        O  0.82545005  0.28535179  0.82029273    -0.87800
C136        C  0.77358022  0.17469116  0.70828338     0.84400
C137        C  0.67983097  0.20223642  0.70781739     1.06000
H138        H  0.79680507  0.22809516  0.77680084     0.37800
O139        O  0.77783959  0.24641502  0.77900781    -1.10500
O140        O  0.75642645  0.32374361  0.76320949    -0.67100
Ni141      Ni  0.78453741  0.28315434  0.74138374     1.26300
O142        O  0.76232725  0.18219826  0.74005421    -0.67400
O143        O  0.82807688  0.30387009  0.76187340    -0.79600
C144        C  0.79194988  0.30174441  0.66883952     0.83800
O145        O  0.79032604  0.31649446  0.69999073    -0.66800
Ni146      Ni  0.77907542  0.26295151  0.82747594     1.27400
Ni147      Ni  0.73449490  0.22369709  0.76092541     1.26100
H148        H  0.72248188  0.27808816  0.72426084     0.38300
O149        O  0.32565854  0.21161023  0.69269177    -0.81600
O150        O  0.18195267  0.29074405  0.73252236    -0.66300
O151        O  0.28059277  0.27301512  0.70871688    -1.12900
C152        C  0.28334149  0.22987516  0.83008192     1.05300
O153        O  0.20216316  0.32174633  0.77926075    -0.79500
O154        O  0.26629076  0.32124645  0.80823182    -0.67100
Ni155      Ni  0.29378171  0.24513516  0.66726989     1.34900
C156        C  0.29587114  0.32538820  0.79214914     0.84000
O157        O  0.22141915  0.30307834  0.67266234    -0.80100
O158        O  0.26351719  0.27647593  0.63789943    -0.90300
C159        C  0.17650799  0.31318496  0.75861565     0.83600
O160        O  0.25878102  0.20604840  0.67141386    -0.68500
O161        O  0.25493393  0.24914853  0.83461181    -0.87800
C162        C  0.22794938  0.20423548  0.68532087     0.84400
C163        C  0.23679412  0.29830154  0.64240586     1.06000
H164        H  0.23208521  0.23369641  0.76566454     0.37800
O165        O  0.24288724  0.25862140  0.76394177    -1.10500
O166        O  0.30841194  0.30100412  0.77053262    -0.67100
Ni167      Ni  0.29240246  0.25157971  0.75452377     1.26300
O168        O  0.21388246  0.23165431  0.70231422    -0.67400
O169        O  0.30149276  0.22986774  0.80094268    -0.79600
C170        C  0.34828151  0.21889937  0.71716706     0.83800
O171        O  0.34133288  0.24238943  0.74190804    -0.66800
Ni172      Ni  0.22885608  0.28474795  0.80589436     1.27400
Ni173      Ni  0.23085836  0.28083409  0.71864611     1.26100
H174        H  0.29178913  0.29779935  0.70631635     0.38300
O175        O  0.77884045  0.75137931  0.35318008    -0.81600
O176        O  0.72122552  0.82442204  0.21742537    -0.66300
O177        O  0.73519672  0.75352817  0.29479817    -1.12900
C178        C  0.83847860  0.71881778  0.22523123     1.05300
O179        O  0.72974406  0.77589788  0.18238473    -0.79500
O180        O  0.75352931  0.70753688  0.19574447    -0.67100
Ni181      Ni  0.73204459  0.76986755  0.34335338     1.34900
C182        C  0.74590725  0.68512661  0.22157907     0.84000
O183        O  0.68092983  0.80542070  0.27665572    -0.80100
O184        O  0.68448532  0.78878277  0.33546314    -0.90300
C185        C  0.72379232  0.81091544  0.18597831     0.83600
O186        O  0.75243974  0.81974004  0.33943024    -0.68500
O187        O  0.82190167  0.73399119  0.19872639    -0.87800
C188        C  0.75958995  0.84145517  0.31286030     0.84400
C189        C  0.66710909  0.80168577  0.30827866     1.06000
H190        H  0.79056715  0.79113753  0.24339022     0.37800
O191        O  0.77277525  0.77142841  0.24039119    -1.10500
O192        O  0.75477857  0.69207378  0.25424055    -0.67100
Ni193      Ni  0.78035041  0.73433966  0.27736653     1.26300
O194        O  0.75151632  0.83267816  0.28057269    -0.67400
O195        O  0.82582428  0.71701915  0.25750302    -0.79600
C196        C  0.78662332  0.71654484  0.34999718     0.83800
O197        O  0.78686839  0.70154769  0.31883060    -0.66800
Ni198      Ni  0.77573243  0.75586623  0.19160711     1.27400
Ni199      Ni  0.72723776  0.79012878  0.25766081     1.26100
H200        H  0.71735681  0.73384345  0.29213747     0.38300
O201        O  0.24260991  0.84500746  0.24261928    -0.81600
O202        O  0.31028808  0.68100878  0.20855000    -0.66300
O203        O  0.25254086  0.77125323  0.21566068    -1.12900
C204        C  0.20980290  0.70868828  0.32162900     1.05300
O205        O  0.26240138  0.64529360  0.21761077    -0.79500
O206        O  0.19835887  0.67433303  0.23371357    -0.67100
Ni207      Ni  0.27681744  0.81943339  0.21287797     1.34900
C208        C  0.17946560  0.70381976  0.22936887     0.84000
O209        O  0.30175917  0.74266132  0.16595899    -0.80100
O210        O  0.31383815  0.80238088  0.18071151    -0.90300
C211        C  0.29487281  0.64859305  0.20799876     0.83600
O212        O  0.30493265  0.80747478  0.25401785    -0.68500
O213        O  0.21691045  0.67800457  0.30502131    -0.87800
C214        C  0.32753136  0.78074164  0.25603665     0.84400
C215        C  0.31677748  0.77441935  0.15948944     1.06000
H216        H  0.28040532  0.71417053  0.27534432     0.37800
O217        O  0.26219976  0.71324983  0.25690231    -1.10500
O218        O  0.18973368  0.73667342  0.23974338    -0.67100
Ni219      Ni  0.23303176  0.75713695  0.26223906     1.26300
O220        O  0.32413452  0.75016717  0.23752658    -0.67400
O221        O  0.21619378  0.74174930  0.30881890    -0.79600
C222        C  0.21527837  0.83668811  0.26149640     0.83800
O223        O  0.20597879  0.80258106  0.26814604    -0.66800
Ni224      Ni  0.24040699  0.66421317  0.26087039     1.27400
Ni225      Ni  0.28296125  0.72737198  0.21182332     1.26100
H226        H  0.23431874  0.77030249  0.19731687     0.38300
O227        O  0.74414441  0.24734701  0.15540738    -0.81600
O228        O  0.77371877  0.31676967  0.31042209    -0.66300
O229        O  0.76583879  0.25641107  0.22580902    -1.12900
C230        C  0.66275679  0.20413974  0.27788449     1.05300
O231        O  0.74343994  0.27904914  0.34834434    -0.79500
O232        O  0.75605406  0.21327108  0.31381997    -0.67100
Ni233      Ni  0.77234881  0.28323985  0.18118116     1.34900
C234        C  0.75826434  0.18948027  0.28840947     0.84000
O235        O  0.81766945  0.30303059  0.25546289    -0.80100
O236        O  0.80395399  0.32168950  0.20009960    -0.90300
C237        C  0.76385959  0.30720183  0.34204430     0.83600
O238        O  0.73176939  0.31369653  0.19050707    -0.68500
O239        O  0.68419550  0.20428682  0.30430237    -0.87800
C240        C  0.73044801  0.33737170  0.21611872     0.84400
C241        C  0.82590133  0.31985246  0.22610159     1.06000
H242        H  0.70475363  0.28979904  0.27592946     0.37800
O243        O  0.72187254  0.26946675  0.27775327    -1.10500
O244        O  0.74008281  0.19297390  0.25931558    -0.67100
Ni245      Ni  0.71844628  0.23773965  0.23628404     1.26300
O246        O  0.74879189  0.33291316  0.24500847    -0.67400
O247        O  0.67059885  0.22086782  0.24830470    -0.79600
C248        C  0.72584339  0.21755445  0.16191276     0.83800
O249        O  0.71574075  0.20788514  0.19348893    -0.66800
Ni250      Ni  0.71523736  0.24326005  0.32270464     1.27400
Ni251      Ni  0.76966464  0.28744531  0.26744828     1.26100
H252        H  0.78311588  0.23616032  0.22723705     0.38300
O253        O  0.95587591  0.04242104  0.53667893    -0.75100
O254        O  0.02559034  0.03952603  0.46221917    -0.75200
O255        O  0.95290954  0.03895179  0.46301111    -0.75200
O256        O  0.02873597  0.03891482  0.53572621    -0.75300
O257        O  0.02687809  0.97558174  0.53602986    -0.75200
O258        O  0.95217772  0.97566828  0.46652081    -0.75200
O259        O  0.02492163  0.97616430  0.46227416    -0.75200
O260        O  0.95425352  0.97915522  0.54024642    -0.75200
Ni261      Ni  0.99080958  0.04218161  0.49937237     1.25400
Ni262      Ni  0.98947566  0.97441162  0.50133390     1.25400
C263        C  0.94365922  0.01199110  0.55118209     0.87000
C264        C  0.03675191  0.00819951  0.44958610     0.87000
C265        C  0.94028498  0.00650980  0.45287348     0.87000
C266        C  0.04028893  0.00654382  0.54756080     0.87200
C267        C  0.14060771  0.96362924  0.32586703     0.79500
N268        N  0.11771114  0.95873572  0.35412186    -0.78800
C269        C  0.10336820  0.98925702  0.37102635     0.81900
N270        N  0.11250802  0.02519051  0.35953847    -0.78800
C271        C  0.13508190  0.03045093  0.33091996     0.82000
N272        N  0.14881674  0.99950108  0.31446180    -0.80500
O273        O  0.18756530  0.29530312  0.19194010    -0.81600
O274        O  0.32358290  0.21106407  0.23940269    -0.66300
O275        O  0.22796414  0.23084716  0.20728222    -1.12900
C276        C  0.21229070  0.26314099  0.32999706     1.05300
O277        O  0.29976209  0.17622897  0.28283020    -0.79500
O278        O  0.23128897  0.17506733  0.30677916    -0.67100
Ni279      Ni  0.21842935  0.26161151  0.16630877     1.34900
C280        C  0.20273534  0.17250227  0.28863799     0.84000
O281        O  0.29006700  0.20361252  0.17464516    -0.80100
O282        O  0.24827237  0.22948897  0.13827159    -0.90300
C283        C  0.32718059  0.18735016  0.26537006     0.83600
O284        O  0.25541087  0.29859770  0.17109916    -0.68500
O285        O  0.24055549  0.24401413  0.33615823    -0.87800
C286        C  0.28446273  0.30024410  0.18846353     0.84400
C287        C  0.27510754  0.20796710  0.14387033     1.06000
H288        H  0.27016275  0.26515093  0.27058389     0.37800
O289        O  0.25969717  0.24038042  0.26652962    -1.10500
O290        O  0.19349346  0.19732686  0.26501679    -0.67100
Ni291      Ni  0.21120052  0.24835912  0.25267638     1.26300
O292        O  0.29526503  0.27300181  0.20872195    -0.67400
O293        O  0.19732309  0.26622810  0.29916190    -0.79600
C294        C  0.16032186  0.28474949  0.20987198     0.83800
O295        O  0.16375038  0.25976233  0.23481519    -0.66800
Ni296      Ni  0.26965154  0.21090601  0.30841889     1.27400
Ni297      Ni  0.27646659  0.22233190  0.22117117     1.26100
H298        H  0.21727504  0.20629302  0.20269725     0.38300
C299        C  0.96456317  0.36893410  0.17715959     0.79500
N300        N  0.96527309  0.39261177  0.14793329    -0.78800
C301        C  0.99574023  0.39909357  0.12908877     0.81900
N302        N  0.02627923  0.38158526  0.13983117    -0.78800
C303        C  0.02636983  0.35769809  0.16920938     0.82000
N304        N  0.99527375  0.35138694  0.18763082    -0.80500
C305        C  0.33188474  0.14433298  0.95266327     0.79500
N306        N  0.35985256  0.12025475  0.95165058    -0.78800
C307        C  0.37261917  0.10472220  0.98262254     0.81900
N308        N  0.35784631  0.11396003  0.01491956    -0.78800
C309        C  0.32976163  0.13808823  0.01594445     0.82000
N310        N  0.31707051  0.15295650  0.98474539    -0.80500
C311        C  0.52768859  0.13661684  0.32073714     0.79500
N312        N  0.52717900  0.11343814  0.35063186    -0.78800
C313        C  0.49565336  0.10113040  0.36502108     0.81900
N314        N  0.46463645  0.11205111  0.34917795    -0.78800
C315        C  0.46447828  0.13519193  0.31950715     0.82000
N316        N  0.49617849  0.14752395  0.30554779    -0.80500
C317        C  0.82914864  0.98696647  0.34436763     0.79500
N318        N  0.85530054  0.99045372  0.36997160    -0.78800
C319        C  0.86952139  0.02539680  0.37773766     0.81900
N320        N  0.85702741  0.05654240  0.36011914    -0.78800
C321        C  0.83094898  0.05369949  0.33484450     0.82000
N322        N  0.81724051  0.01883576  0.32708598    -0.80500
C323        C  0.67050953  0.15253148  0.03258522     0.79500
N324        N  0.68576258  0.15945271  0.99985556    -0.78800
C325        C  0.66777221  0.15189410  0.96877343     0.81900
N326        N  0.63402649  0.13757865  0.97080042    -0.78800
C327        C  0.61856733  0.13125544  0.00355526     0.82000
N328        N  0.63690222  0.13860665  0.03404068    -0.80500
C329        C  0.67337838  0.54717850  0.17272035     0.79500
N330        N  0.65118861  0.54832232  0.14346947    -0.78800
C331        C  0.63675651  0.51578126  0.12974401     0.81900
N332        N  0.64505716  0.48181616  0.14537484    -0.78800
C333        C  0.66718889  0.48010383  0.17452789     0.82000
N334        N  0.68113406  0.51287983  0.18794962    -0.80500
C335        C  0.83492034  0.36829636  0.53289409     0.79500
N336        N  0.86701057  0.38630619  0.52951830    -0.78800
C337        C  0.88009008  0.39508929  0.49615078     0.81900
N338        N  0.86106117  0.38617003  0.46640698    -0.78800
C339        C  0.82910362  0.36840087  0.46932889     0.82000
N340        N  0.81629841  0.35932387  0.50262664    -0.80500
C341        C  0.36207319  0.50936685  0.15701110     0.79500
N342        N  0.39011756  0.50960568  0.13346589    -0.78800
C343        C  0.40352308  0.47626243  0.12079189     0.81900
N344        N  0.38872634  0.44251381  0.13204769    -0.78800
C345        C  0.36057232  0.44179648  0.15536429     0.82000
N346        N  0.34745743  0.47536400  0.16736525    -0.80500
C347        C  0.97584067  0.66586716  0.17267865     0.79500
N348        N  0.97545980  0.64267811  0.14351815    -0.78800
C349        C  0.00603940  0.63135438  0.12739281     0.81900
N350        N  0.03783563  0.64340912  0.14079034    -0.78800
C351        C  0.03924568  0.66684939  0.16995138     0.82000
N352        N  0.00801927  0.67805564  0.18581902    -0.80500
C353        C  0.38894147  0.80807897  0.96172734     0.79500
N354        N  0.37586820  0.79510263  0.99392516    -0.78800
C355        C  0.38916417  0.80879919  0.02551148     0.81900
N356        N  0.41484083  0.83626346  0.02452189    -0.78800
C357        C  0.42794148  0.84907651  0.99253957     0.82000
N358        N  0.41499503  0.83489297  0.96150569    -0.80500
C359        C  0.51780925  0.83634944  0.33919462     0.79500
N360        N  0.51257269  0.86112793  0.36646419    -0.78800
C361        C  0.47941022  0.87134398  0.37707495     0.81900
N362        N  0.45070649  0.85614758  0.36004121    -0.78800
C363        C  0.45489236  0.83071239  0.33273225     0.82000
N364        N  0.48874934  0.82105547  0.32215704    -0.80500
C365        C  0.14572964  0.69689868  0.52598719     0.79500
N366        N  0.11959122  0.67014534  0.52862636    -0.78800
C367        C  0.10696760  0.65234952  0.49916803     0.81900
N368        N  0.12060941  0.66128916  0.46637760    -0.78800
C369        C  0.14665409  0.68811420  0.46276259     0.82000
N370        N  0.15946681  0.70583442  0.49278874    -0.80500
C371        C  0.69252496  0.87783082  0.98774885     0.79500
N372        N  0.70694716  0.86858299  0.02031058    -0.78800
C373        C  0.69466921  0.88437661  0.05116818     0.81900
N374        N  0.66758534  0.90948493  0.04928896    -0.78800
C375        C  0.65273927  0.91881128  0.01721115     0.82000
N376        N  0.66501979  0.90283684  0.98636000    -0.80500
C377        C  0.17421236  0.35980530  0.51373296     0.79500
N378        N  0.18259676  0.34066334  0.48349425    -0.78800
C379        C  0.16550535  0.34750770  0.45207478     0.81900
N380        N  0.13967615  0.37420161  0.45074131    -0.78800
C381        C  0.13078985  0.39353805  0.48088705     0.82000
N382        N  0.14786838  0.38612682  0.51257676    -0.80500
C383        C  0.98117746  0.36578725  0.82570224     0.79500
N384        N  0.98552962  0.38907779  0.85470972    -0.78800
C385        C  0.01840921  0.40308187  0.86315505     0.81900
N386        N  0.04675512  0.39329376  0.84266325    -0.78800
C387        C  0.04318948  0.36985869  0.81394576     0.82000
N388        N  0.01019768  0.35615822  0.80550467    -0.80500
C389        C  0.15681545  0.99450876  0.65326920     0.79500
N390        N  0.12925111  0.99500742  0.62883229    -0.78800
C391        C  0.11597896  0.02918726  0.61649611     0.81900
N392        N  0.13030541  0.06217942  0.62872021    -0.78800
C393        C  0.15757936  0.06208102  0.65264946     0.82000
N394        N  0.17060499  0.02830008  0.66450964    -0.80500
C395        C  0.54037849  0.14217059  0.67071627     0.79500
N396        N  0.51135939  0.15556057  0.68857306    -0.78800
C397        C  0.47789783  0.14491408  0.67869408     0.81900
N398        N  0.47356571  0.12086121  0.65053461    -0.78800
C399        C  0.50205027  0.10765579  0.63203431     0.82000
N400        N  0.53553026  0.11845017  0.64218778    -0.80500
C401        C  0.37102870  0.53062742  0.83477763     0.79500
N402        N  0.35704996  0.49760940  0.82205270    -0.78800
C403        C  0.36785316  0.46324709  0.83439019     0.81900
N404        N  0.39308328  0.46162663  0.86042654    -0.78800
C405        C  0.40742801  0.49385889  0.87439974     0.82000
N406        N  0.39640867  0.52878244  0.86152777    -0.80500
C407        C  0.84633156  0.96602114  0.68038397     0.79500
N408        N  0.86902534  0.96315749  0.65197165    -0.78800
C409        C  0.87987633  0.99434954  0.63303903     0.81900
N410        N  0.86743616  0.02937199  0.64274902    -0.78800
C411        C  0.84468905  0.03276412  0.67156048     0.82000
N412        N  0.83437496  0.00085773  0.68994417    -0.80500
C413        C  0.00035108  0.67247664  0.82975343     0.79500
N414        N  0.03050643  0.68717257  0.81393836    -0.78800
C415        C  0.06351370  0.67737643  0.82672411     0.81900
N416        N  0.06583980  0.65282492  0.85535286    -0.78800
C417        C  0.03615681  0.63833038  0.87147179     0.82000
N418        N  0.00369962  0.64826587  0.85846938    -0.80500
C419        C  0.54303869  0.85053174  0.68976810     0.79500
N420        N  0.51070147  0.83576066  0.69988816    -0.78800
C421        C  0.48067704  0.84380353  0.68022772     0.81900
N422        N  0.48357784  0.86650896  0.65011311    -0.78800
C423        C  0.51581989  0.88092610  0.63964903     0.82000
N424        N  0.54500491  0.87285458  0.65968318    -0.80500
C425        C  0.68827332  0.54200235  0.84149040     0.79500
N426        N  0.69892490  0.50791100  0.82838561    -0.78800
C427        C  0.68380788  0.47476603  0.84058550     0.81900
N428        N  0.65752509  0.47618625  0.86639022    -0.78800
C429        C  0.64641243  0.51046208  0.87931309     0.82000
N430        N  0.66208462  0.54275792  0.86674375    -0.80500
C431        C  0.82541787  0.64120327  0.54760219     0.79500
N432        N  0.85428876  0.61835001  0.54759048    -0.78800
C433        C  0.86940583  0.60763095  0.51625079     0.81900
N434        N  0.85573958  0.61993662  0.48436661    -0.78800
C435        C  0.82680967  0.64289649  0.48371924     0.82000
N436        N  0.81184353  0.65364653  0.51552221    -0.80500
C437        C  0.17824787  0.31734492  0.35551256    -0.14100
C438        C  0.19675396  0.28312847  0.36060133     0.08100
C439        C  0.20266053  0.26918305  0.39562567    -0.14100
C440        C  0.19167905  0.28989121  0.42521509    -0.14100
C441        C  0.17454781  0.32494335  0.42034898     0.08100
C442        C  0.16721800  0.33822540  0.38530618    -0.14100
H443        H  0.17358175  0.32862303  0.32863429     0.12100
H444        H  0.21637421  0.24252173  0.40016170     0.12100
H445        H  0.19703999  0.27860918  0.45195998     0.12100
H446        H  0.15403454  0.36520293  0.38095999     0.12100
C447        C  0.30576944  0.40505274  0.17409819    -0.14100
C448        C  0.34244475  0.40519288  0.16601653     0.08100
C449        C  0.36077015  0.37027681  0.16786692    -0.14100
C450        C  0.34267723  0.33618355  0.17732791    -0.14100
C451        C  0.30569908  0.33616590  0.18413305     0.08100
C452        C  0.28766491  0.37110834  0.18251000    -0.14100
H453        H  0.29066978  0.43119308  0.17281072     0.12100
H454        H  0.38904321  0.36933692  0.16193958     0.12100
H455        H  0.35724120  0.30968284  0.17782403     0.12100
H456        H  0.25916608  0.37209284  0.18730722     0.12100
C457        C  0.39479925  0.18935373  0.26407278    -0.14100
C458        C  0.36280823  0.17239497  0.27622945     0.08100
C459        C  0.36488337  0.14223049  0.30138786    -0.14100
C460        C  0.39778356  0.12994031  0.31471905    -0.14100
C461        C  0.42980221  0.14738407  0.30337763     0.08100
C462        C  0.42793753  0.17697246  0.27748342    -0.14100
H463        H  0.39417039  0.21284321  0.24495864     0.12100
H464        H  0.34088996  0.12835563  0.31134968     0.12100
H465        H  0.39800376  0.10689977  0.33433392     0.12100
H466        H  0.45201511  0.19115573  0.26816961     0.12100
C467        C  0.33284394  0.14741225  0.08306708    -0.14100
C468        C  0.31440933  0.15109287  0.05022126     0.08100
C469        C  0.28208108  0.17094159  0.04936199    -0.14100
C470        C  0.26944097  0.18869475  0.07994989    -0.14100
C471        C  0.28862229  0.18696874  0.11245496     0.08100
C472        C  0.32000558  0.16528834  0.11406984    -0.14100
H473        H  0.35778689  0.13209514  0.08446233     0.12100
H474        H  0.26686070  0.17379247  0.02466054     0.12100
H475        H  0.24474553  0.20438033  0.07777305     0.12100
H476        H  0.33504950  0.16298079  0.13891104     0.12100
C477        C  0.12391039  0.32896383  0.17176033    -0.14100
C478        C  0.12548313  0.30320725  0.20109970     0.08100
C479        C  0.09383849  0.29549614  0.22037325    -0.14100
C480        C  0.06155315  0.31312196  0.21031230    -0.14100
C481        C  0.06022203  0.33872706  0.18070244     0.08100
C482        C  0.09196455  0.34629882  0.16173667    -0.14100
H483        H  0.14753620  0.33571532  0.15605501     0.12100
H484        H  0.09400783  0.27585165  0.24306603     0.12100
H485        H  0.03764651  0.30657596  0.22564035     0.12100
H486        H  0.09228962  0.36572854  0.13887666     0.12100
C487        C  0.15793285  0.07553939  0.28258422    -0.14100
C488        C  0.14684703  0.06918352  0.31858768     0.08100
C489        C  0.15061621  0.09906649  0.34316817    -0.14100
C490        C  0.16720471  0.13338048  0.33263127    -0.14100
C491        C  0.17943269  0.13915301  0.29703537     0.08100
C492        C  0.17371850  0.11028184  0.27183330    -0.14100
H493        H  0.15535487  0.05313400  0.26291807     0.12100
H494        H  0.14265975  0.09513175  0.37106204     0.12100
H495        H  0.17164294  0.15508999  0.35268610     0.12100
H496        H  0.18330601  0.11373810  0.24441371     0.12100
C497        C  0.91165108  0.00239944  0.42521008    -0.17200
C498        C  0.89790564  0.03102463  0.40554420    -0.32300
H499        H  0.90187378  0.97372750  0.42046513     0.11900
H500        H  0.90773003  0.05975369  0.40985506     0.12400
C501        C  0.06337770  0.01157037  0.41983122    -0.17200
C502        C  0.07788652  0.98265634  0.40161186    -0.32300
H503        H  0.07099058  0.04041454  0.41214014     0.11900
H504        H  0.07069095  0.95360137  0.40888720     0.12400
C505        C  0.90483934  0.98854177  0.60210364    -0.17200
C506        C  0.91731014  0.01688854  0.58099574    -0.32300
H507        H  0.91360526  0.95971123  0.59693340     0.11900
H508        H  0.90875705  0.04573368  0.58647378     0.12400
C509        C  0.08650104  0.03255614  0.58953664    -0.17200
C510        C  0.06948071  0.00292397  0.57478092    -0.32300
H511        H  0.07863057  0.06108564  0.58142946     0.11900
H512        H  0.07727773  0.97435766  0.58282738     0.12400
C513        C  0.82168460  0.36849773  0.40197084    -0.14100
C514        C  0.80974545  0.35687606  0.43646210     0.08100
C515        C  0.78033380  0.33224781  0.43920440    -0.14100
C516        C  0.76437171  0.31794569  0.40829771    -0.14100
C517        C  0.77744031  0.32780306  0.37379225     0.08100
C518        C  0.80562675  0.35410407  0.37086044    -0.14100
H519        H  0.84412329  0.38782388  0.39897462     0.12100
H520        H  0.77036672  0.32283055  0.46526021     0.12100
H521        H  0.74250097  0.29793567  0.41162369     0.12100
H522        H  0.81622092  0.36229301  0.34469398     0.12100
C523        C  0.71690542  0.40567763  0.22976994    -0.14100
C524        C  0.70934204  0.37246874  0.21037875     0.08100
C525        C  0.68422973  0.37425405  0.18226886    -0.14100
C526        C  0.66895597  0.40886171  0.17204893    -0.14100
C527        C  0.67864376  0.44268351  0.18946725     0.08100
C528        C  0.70179725  0.44047385  0.21934325    -0.14100
H529        H  0.73604292  0.40521587  0.25164173     0.12100
H530        H  0.67745729  0.34907454  0.16708923     0.12100
H531        H  0.65087269  0.40928833  0.14929039     0.12100
H532        H  0.70948699  0.46586898  0.23374038     0.12100
C533        C  0.73275428  0.20131492  0.09709675    -0.14100
C534        C  0.71554674  0.19464810  0.13038880     0.08100
C535        C  0.68677875  0.16902714  0.13193528    -0.14100
C536        C  0.67340730  0.15329129  0.10016964    -0.14100
C537        C  0.68869829  0.16287636  0.06646259     0.08100
C538        C  0.71950025  0.18558171  0.06548854    -0.14100
H539        H  0.75560721  0.22023168  0.09513492     0.12100
H540        H  0.67335981  0.16291503  0.15725378     0.12100
H541        H  0.65003173  0.13510186  0.10188020     0.12100
H542        H  0.73223941  0.19300449  0.04011612     0.12100
C543        C  0.80829350  0.15743607  0.32034137    -0.14100
C544        C  0.78075901  0.15562771  0.29475646     0.08100
C545        C  0.77239147  0.12037974  0.27925908    -0.14100
C546        C  0.78960223  0.08717130  0.29113982    -0.14100
C547        C  0.81574790  0.08879628  0.31838489     0.08100
C548        C  0.82566845  0.12455261  0.33185330    -0.14100
H549        H  0.81554277  0.18425002  0.33255095     0.12100
H550        H  0.75119647  0.11816596  0.25953909     0.12100
H551        H  0.78154788  0.06014232  0.27992374     0.12100
H552        H  0.84583664  0.12711467  0.35258955     0.12100
C553        C  0.59648760  0.19551001  0.26749522    -0.14100
C554        C  0.62855383  0.18313892  0.28318221     0.08100
C555        C  0.62719785  0.15322876  0.30867495    -0.14100
C556        C  0.59466634  0.13739603  0.31974223    -0.14100
C557        C  0.56231868  0.15105994  0.30579039     0.08100
C558        C  0.56365378  0.17964476  0.27872991    -0.14100
H559        H  0.59663347  0.21874443  0.24807653     0.12100
H560        H  0.65144747  0.14284578  0.32112423     0.12100
H561        H  0.59491416  0.11511635  0.34012875     0.12100
H562        H  0.53928301  0.19077235  0.26718306     0.12100
C563        C  0.89250654  0.32144895  0.23532935    -0.14100
C564        C  0.86149777  0.33773857  0.22067018     0.08100
C565        C  0.86513096  0.36779337  0.19565863    -0.14100
C566        C  0.89874846  0.37931647  0.18338223    -0.14100
C567        C  0.92979618  0.36080677  0.19542726     0.08100
C568        C  0.92640511  0.33278055  0.22269946    -0.14100
H569        H  0.89048123  0.29817199  0.25460241     0.12100
H570        H  0.84174758  0.38122347  0.18416959     0.12100
H571        H  0.90013524  0.40156430  0.16299643     0.12100
H572        H  0.94973844  0.31825792  0.23294998     0.12100
C573        C  0.18473240  0.72649410  0.41923322    -0.14100
C574        C  0.16215298  0.69523843  0.42646807     0.08100
C575        C  0.15460906  0.66964649  0.39849920    -0.14100
C576        C  0.16998573  0.67441000  0.36456823    -0.14100
C577        C  0.19285231  0.70521683  0.35741691     0.08100
C578        C  0.19968558  0.73167203  0.38478861    -0.14100
H579        H  0.19088271  0.74678758  0.44012794     0.12100
H580        H  0.13728540  0.64527583  0.40290473     0.12100
H581        H  0.16392865  0.65390027  0.34380604     0.12100
H582        H  0.21727341  0.75572067  0.37980742     0.12100
C583        C  0.39325522  0.77234199  0.27109591    -0.14100
C584        C  0.35961235  0.78780946  0.27908051     0.08100
C585        C  0.35761677  0.81504984  0.30652449    -0.14100
C586        C  0.38828843  0.82793373  0.32418355    -0.14100
C587        C  0.42230833  0.81425034  0.31499235     0.08100
C588        C  0.42428645  0.78553943  0.28874852    -0.14100
H589        H  0.39583100  0.75149938  0.24997513     0.12100
H590        H  0.33222798  0.82751451  0.31361605     0.12100
H591        H  0.38525434  0.84963968  0.34443442     0.12100
H592        H  0.44987713  0.77390128  0.28123303     0.12100
C593        C  0.33411954  0.75620978  0.09647928    -0.14100
C594        C  0.33849404  0.77993713  0.12644279     0.08100
C595        C  0.36181633  0.81128289  0.12363215    -0.14100
C596        C  0.37921220  0.81966849  0.09123539    -0.14100
C597        C  0.37343631  0.79717154  0.06064110     0.08100
C598        C  0.35124459  0.76491800  0.06376560    -0.14100
H599        H  0.31633536  0.73185059  0.09787335     0.12100
H600        H  0.36600467  0.82997994  0.14629791     0.12100
H601        H  0.39619168  0.84468261  0.08989800     0.12100
H602        H  0.34655216  0.74685574  0.04075408     0.12100
C603        C  0.11338542  0.71906077  0.22197320    -0.14100
C604        C  0.14379810  0.69821906  0.21196733     0.08100
C605        C  0.13928569  0.66822013  0.18759721    -0.14100
C606        C  0.10564640  0.65883406  0.17392424    -0.14100
C607        C  0.07495566  0.67871972  0.18444434     0.08100
C608        C  0.07925991  0.70919322  0.20859407    -0.14100
H609        H  0.11578725  0.74198220  0.24111772     0.12100
H610        H  0.16195752  0.65142052  0.17938219     0.12100
H611        H  0.10369380  0.63517248  0.15556344     0.12100
H612        H  0.05629173  0.72525009  0.21726735     0.12100
C613        C  0.29797909  0.57776708  0.20204569    -0.14100
C614        C  0.31349399  0.61369399  0.19513968     0.08100
C615        C  0.34601518  0.61513653  0.17609491    -0.14100
C616        C  0.36207399  0.58147511  0.16371180    -0.14100
C617        C  0.34617098  0.54559682  0.17044540     0.08100
C618        C  0.31406000  0.54440719  0.19011307    -0.14100
H619        H  0.27315110  0.57527526  0.21688825     0.12100
H620        H  0.35876568  0.64224814  0.17035300     0.12100
H621        H  0.38688718  0.58356838  0.14882425     0.12100
H622        H  0.30088259  0.51756615  0.19604955     0.12100
C623        C  0.18289227  0.93655554  0.28048233    -0.14100
C624        C  0.15794096  0.93052401  0.30837745     0.08100
C625        C  0.15089710  0.89290867  0.31984839    -0.14100
C626        C  0.16877672  0.86224046  0.30412945    -0.14100
C627        C  0.19422688  0.86851557  0.27672027     0.08100
C628        C  0.20081459  0.90607528  0.26499741    -0.14100
H629        H  0.18909823  0.96500596  0.27081739     0.12100
H630        H  0.13192040  0.88715465  0.34129193     0.12100
H631        H  0.16323284  0.83370517  0.31398408     0.12100
H632        H  0.22016902  0.91207676  0.24394680     0.12100
C633        C  0.79005067  0.68928651  0.44855269    -0.14100
C634        C  0.81414045  0.65894177  0.44888516     0.08100
C635        C  0.82774459  0.64590856  0.41574552    -0.14100
C636        C  0.81812871  0.66360379  0.38311140    -0.14100
C637        C  0.79518564  0.69492014  0.38320663     0.08100
C638        C  0.78092509  0.70719088  0.41618180    -0.14100
H639        H  0.77902807  0.70007383  0.47341918     0.12100
H640        H  0.84634259  0.62248718  0.41505900     0.12100
H641        H  0.82949558  0.65367791  0.35806918     0.12100
H642        H  0.76283155  0.73107695  0.41701704     0.12100
C643        C  0.70639863  0.64958406  0.17882242    -0.14100
C644        C  0.72555735  0.64994323  0.21159047     0.08100
C645        C  0.72625450  0.61628487  0.23239014    -0.14100
C646        C  0.70910136  0.58299800  0.22007101    -0.14100
C647        C  0.69039484  0.58273074  0.18693491     0.08100
C648        C  0.68904136  0.61671789  0.16681865    -0.14100
H649        H  0.70498839  0.67492089  0.16202149     0.12100
H650        H  0.74083840  0.61538403  0.25758313     0.12100
H651        H  0.71073412  0.55736158  0.23640933     0.12100
H652        H  0.67512156  0.61783949  0.14125068     0.12100
C653        C  0.73757861  0.82228319  0.12163884    -0.14100
C654        C  0.72046550  0.83438334  0.15320269     0.08100
C655        C  0.69892717  0.86673414  0.15198018    -0.14100
C656        C  0.69213913  0.88468922  0.11885086    -0.14100
C657        C  0.70711126  0.87062692  0.08673553     0.08100
C658        C  0.73111259  0.84029203  0.08877228    -0.14100
H659        H  0.75508884  0.79787657  0.12214108     0.12100
H660        H  0.68583373  0.87674652  0.17611585     0.12100
H661        H  0.67383898  0.90838880  0.11821396     0.12100
H662        H  0.74351394  0.82909847  0.06474853     0.12100
C663        C  0.60299502  0.81141129  0.28695672    -0.14100
C664        C  0.62882328  0.81193383  0.31465045     0.08100
C665        C  0.61728709  0.81978104  0.34990688    -0.14100
C666        C  0.58140157  0.82705783  0.35734470    -0.14100
C667        C  0.55541841  0.82616700  0.32997813     0.08100
C668        C  0.56659195  0.81808334  0.29460814    -0.14100
H669        H  0.61081962  0.80511016  0.25955154     0.12100
H670        H  0.63614779  0.82038506  0.37201628     0.12100
H671        H  0.57392060  0.83319703  0.38490625     0.12100
H672        H  0.54735968  0.81762853  0.27284027     0.12100
C673        C  0.79788722  0.88337992  0.35233349    -0.14100
C674        C  0.77820463  0.87842895  0.32027169     0.08100
C675        C  0.77619704  0.90929983  0.29595070    -0.14100
C676        C  0.79280186  0.94423831  0.30376706    -0.14100
C677        C  0.81254452  0.94918591  0.33581005     0.08100
C678        C  0.81507810  0.91808646  0.35982156    -0.14100
H679        H  0.80016589  0.86024004  0.37169132     0.12100
H680        H  0.76120795  0.90667968  0.27112894     0.12100
H681        H  0.79018888  0.96746089  0.28454860     0.12100
H682        H  0.82979861  0.92076583  0.38479549     0.12100
C683        C  0.87574213  0.67830195  0.18585096    -0.14100
C684        C  0.87359797  0.70167744  0.21623694     0.08100
C685        C  0.90544063  0.71190998  0.23381782    -0.14100
C686        C  0.93881467  0.70009178  0.22025230    -0.14100
C687        C  0.94091918  0.67748030  0.18908389     0.08100
C688        C  0.90868985  0.66616017  0.17268943    -0.14100
H689        H  0.85169189  0.67007457  0.17163703     0.12100
H690        H  0.90461890  0.73039856  0.25696847     0.12100
H691        H  0.96293503  0.70926398  0.23373042     0.12100
H692        H  0.90876681  0.64859494  0.14887733     0.12100
C693        C  0.31513105  0.42894195  0.80914583    -0.14100
C694        C  0.35075088  0.42809897  0.82085696     0.08100
C695        C  0.36913445  0.39332293  0.82059195    -0.14100
C696        C  0.35195865  0.35992550  0.80933619    -0.14100
C697        C  0.31590584  0.36071712  0.79922205     0.08100
C698        C  0.29775664  0.39550915  0.79897224    -0.14100
H699        H  0.30025185  0.45525286  0.80913172     0.12100
H700        H  0.39666845  0.39194901  0.82930765     0.12100
H701        H  0.36630799  0.33328560  0.80999987     0.12100
H702        H  0.26988737  0.39669524  0.79130875     0.12100
C703        C  0.44707531  0.19742296  0.71240086    -0.14100
C704        C  0.44602260  0.16134008  0.69619603     0.08100
C705        C  0.41310756  0.14246871  0.69322320    -0.14100
C706        C  0.38164483  0.16044297  0.70309186    -0.14100
C707        C  0.38221194  0.19775065  0.71619759     0.08100
C708        C  0.41526486  0.21557447  0.72237022    -0.14100
H709        H  0.47214318  0.21259561  0.71514773     0.12100
H710        H  0.41145223  0.11439347  0.68157661     0.12100
H711        H  0.35651435  0.14585921  0.69858584     0.12100
H712        H  0.41635447  0.24439718  0.73234062     0.12100
C713        C  0.22610247  0.13344494  0.68557171    -0.14100
C714        C  0.20811752  0.16810656  0.68109608     0.08100
C715        C  0.17249384  0.16766126  0.66953819    -0.14100
C716        C  0.15574990  0.13314980  0.66082444    -0.14100
C717        C  0.17409249  0.09844669  0.66438157     0.08100
C718        C  0.20915131  0.09897843  0.67777930    -0.14100
H719        H  0.25359925  0.13311194  0.69456694     0.12100
H720        H  0.15820551  0.19407098  0.66567921     0.12100
H721        H  0.12862611  0.13367088  0.65080992     0.12100
H722        H  0.22403384  0.07285125  0.68091624     0.12100
C723        C  0.10835823  0.37632837  0.80179125    -0.14100
C724        C  0.07588280  0.35799970  0.79414822     0.08100
C725        C  0.07617998  0.32707323  0.77018399    -0.14100
C726        C  0.10869526  0.31339092  0.75629006    -0.14100
C727        C  0.14124158  0.33046916  0.76625125     0.08100
C728        C  0.14037485  0.36279134  0.78816692    -0.14100
H729        H  0.10938463  0.40056222  0.81954851     0.12100
H730        H  0.05159836  0.31242282  0.76353461     0.12100
H731        H  0.10852702  0.28839884  0.73947381     0.12100
H732        H  0.16483127  0.37700836  0.79606705     0.12100
C733        C  0.19193930  0.34090397  0.61253303    -0.14100
C734        C  0.22276204  0.31838818  0.61041587     0.08100
C735        C  0.23944500  0.31370010  0.57686972    -0.14100
C736        C  0.22445458  0.32905805  0.54581590    -0.14100
C737        C  0.19245553  0.34951849  0.54751821     0.08100
C738        C  0.17689329  0.35644688  0.58123411    -0.14100
H739        H  0.17874865  0.34539312  0.63812913     0.12100
H740        H  0.26354187  0.29709637  0.57430598     0.12100
H741        H  0.23741357  0.32378310  0.52023086     0.12100
H742        H  0.15227542  0.37224591  0.58324286     0.12100
C743        C  0.32887469  0.18819165  0.85952067    -0.14100
C744        C  0.29548366  0.20612555  0.86040121     0.08100
C745        C  0.27344643  0.20127870  0.89074458    -0.14100
C746        C  0.28498779  0.18004501  0.92016232    -0.14100
C747        C  0.31876537  0.16314762  0.91985849     0.08100
C748        C  0.34043875  0.16676765  0.88910202    -0.14100
H749        H  0.34632143  0.19131248  0.83634955     0.12100
H750        H  0.24732891  0.21420843  0.89201679     0.12100
H751        H  0.26758146  0.17733173  0.94340937     0.12100
H752        H  0.36669375  0.15410982  0.88834841     0.12100
C753        C  0.78371635  0.31246047  0.60352219    -0.14100
C754        C  0.79998658  0.32392642  0.63575456     0.08100
C755        C  0.82577200  0.35302989  0.63459297    -0.14100
C756        C  0.83665756  0.36858745  0.60119398    -0.14100
C757        C  0.82140992  0.35562730  0.56874798     0.08100
C758        C  0.79404052  0.32824716  0.57055269    -0.14100
H759        H  0.76353202  0.29025085  0.60371932     0.12100
H760        H  0.83872518  0.36224145  0.65912277     0.12100
H761        H  0.85758763  0.38995063  0.60068515     0.12100
H762        H  0.78151303  0.31764708  0.54630875     0.12100
C763        C  0.73358041  0.40144432  0.78388186    -0.14100
C764        C  0.72877757  0.36788016  0.80426042     0.08100
C765        C  0.70730384  0.36944570  0.83549302    -0.14100
C766        C  0.69167751  0.40361650  0.84648962    -0.14100
C767        C  0.69757823  0.43756851  0.82700271     0.08100
C768        C  0.71847148  0.43589655  0.79529071    -0.14100
H769        H  0.75020302  0.40139859  0.75996643     0.12100
H770        H  0.70300111  0.34414649  0.85189184     0.12100
H771        H  0.67594341  0.40364049  0.87100696     0.12100
H772        H  0.72360275  0.46141582  0.77947061     0.12100
C773        C  0.81287190  0.13565160  0.66782905    -0.14100
C774        C  0.79453037  0.13939256  0.70094245     0.08100
C775        C  0.79492647  0.10842066  0.72517388    -0.14100
C776        C  0.81193679  0.07429886  0.71592135    -0.14100
C777        C  0.82940097  0.07027694  0.68235239     0.08100
C778        C  0.83016570  0.10175523  0.65876858    -0.14100
H779        H  0.81342623  0.15889059  0.64842514     0.12100
H780        H  0.78116045  0.11011348  0.75080044     0.12100
H781        H  0.81091565  0.05076560  0.73498089     0.12100
H782        H  0.84319436  0.09986466  0.63276575     0.12100
C783        C  0.60551701  0.15218065  0.65722671    -0.14100
C784        C  0.57676447  0.15485872  0.68139530     0.08100
C785        C  0.58282555  0.17124385  0.71539025    -0.14100
C786        C  0.61663323  0.18534890  0.72466267    -0.14100
C787        C  0.64491666  0.18406496  0.69986801     0.08100
C788        C  0.63906598  0.16697994  0.66620627    -0.14100
H789        H  0.60185386  0.13971451  0.63088832     0.12100
H790        H  0.56131147  0.17352800  0.73475252     0.12100
H791        H  0.62032951  0.19845547  0.75071294     0.12100
H792        H  0.66046128  0.16534026  0.64662393     0.12100
C793        C  0.72952063  0.19605953  0.89936093    -0.14100
C794        C  0.71296881  0.18675309  0.86664496     0.08100
C795        C  0.68280204  0.16288972  0.86722043    -0.14100
C796        C  0.66837736  0.15041971  0.90041163    -0.14100
C797        C  0.68425694  0.16131328  0.93328723     0.08100
C798        C  0.71556243  0.18336624  0.93215237    -0.14100
H799        H  0.75282785  0.21445223  0.89962162     0.12100
H800        H  0.66936634  0.15568747  0.84233667     0.12100
H801        H  0.64432150  0.13320382  0.90036673     0.12100
H802        H  0.72864869  0.19226056  0.95671645     0.12100
C803        C  0.88612998  0.32928932  0.83651805    -0.14100
C804        C  0.87695992  0.31899587  0.80109070     0.08100
C805        C  0.90233528  0.32469651  0.77355288    -0.14100
C806        C  0.93628531  0.33963809  0.78147435    -0.14100
C807        C  0.94526281  0.35007144  0.81693141     0.08100
C808        C  0.91963171  0.34497406  0.84424661    -0.14100
H809        H  0.86723578  0.32542110  0.85840128     0.12100
H810        H  0.89618372  0.31694548  0.74604473     0.12100
H811        H  0.95542607  0.34334421  0.75979693     0.12100
H812        H  0.92570734  0.35248307  0.87183763     0.12100
C813        C  0.20792059  0.74563061  0.59277488    -0.14100
C814        C  0.19476593  0.73085057  0.62561899     0.08100
C815        C  0.16342110  0.70899574  0.62553925    -0.14100
C816        C  0.14651198  0.70026068  0.59322755    -0.14100
C817        C  0.16093934  0.71240067  0.55989466     0.08100
C818        C  0.19127939  0.73620355  0.56004223    -0.14100
H819        H  0.23215826  0.76255447  0.59226967     0.12100
H820        H  0.15252889  0.69766497  0.65055696     0.12100
H821        H  0.12288323  0.68242032  0.59448603     0.12100
H822        H  0.20296100  0.74621811  0.53493192     0.12100
C823        C  0.40666451  0.79162343  0.73298436    -0.14100
C824        C  0.37565979  0.80766768  0.71792706     0.08100
C825        C  0.37961067  0.83353796  0.68898216    -0.14100
C826        C  0.41349952  0.84399048  0.67608802    -0.14100
C827        C  0.44468806  0.82950251  0.69216583     0.08100
C828        C  0.44076941  0.80261581  0.72044782    -0.14100
H829        H  0.40461058  0.77193783  0.75557567     0.12100
H830        H  0.35635254  0.84644080  0.67673409     0.12100
H831        H  0.41518043  0.86455058  0.65419181     0.12100
H832        H  0.46406370  0.79061956  0.73341488     0.12100
C833        C  0.12908262  0.73190407  0.76521449    -0.14100
C834        C  0.16188568  0.71567352  0.77530004     0.08100
C835        C  0.16198149  0.68847233  0.80337820    -0.14100
C836        C  0.13027319  0.67696145  0.82023985    -0.14100
C837        C  0.09715563  0.69194304  0.80942609     0.08100
C838        C  0.09701766  0.71998644  0.78193893    -0.14100
H839        H  0.12803945  0.75261416  0.74341764     0.12100
H840        H  0.18670421  0.67536727  0.81191337     0.12100
H841        H  0.13179544  0.65546716  0.84130725     0.12100
H842        H  0.07211450  0.73230834  0.77297475     0.12100
C843        C  0.35121883  0.63689992  0.81508805    -0.14100
C844        C  0.32643635  0.63402856  0.78646361     0.08100
C845        C  0.31812580  0.59747252  0.77392056    -0.14100
C846        C  0.33311207  0.56504060  0.78947938    -0.14100
C847        C  0.35727787  0.56725650  0.81854026     0.08100
C848        C  0.36649335  0.60384654  0.83096100    -0.14100
H849        H  0.35827591  0.66453854  0.82562331     0.12100
H850        H  0.29944580  0.59358587  0.75197607     0.12100
H851        H  0.32517184  0.53786762  0.77851091     0.12100
H852        H  0.38499730  0.60690669  0.85315861     0.12100
C853        C  0.36900078  0.80815489  0.86198893    -0.14100
C854        C  0.33480504  0.79199556  0.86131576     0.08100
C855        C  0.31994838  0.77706895  0.89328272    -0.14100
C856        C  0.33824808  0.78040739  0.92602083    -0.14100
C857        C  0.37191991  0.79816043  0.92703588     0.08500
C858        C  0.38756077  0.81081604  0.89443326    -0.14100
H859        H  0.38121082  0.81902317  0.83741759     0.12100
H860        H  0.29358854  0.76427152  0.89312897     0.12100
H861        H  0.32542955  0.77053186  0.95061116     0.12100
H862        H  0.41368612  0.82415352  0.89409313     0.12100
C863        C  0.17793144  0.88865841  0.67393627    -0.14100
C864        C  0.20612933  0.89200189  0.69905955     0.08100
C865        C  0.21691583  0.92892123  0.70865375    -0.14100
C866        C  0.20074197  0.96117127  0.69376023    -0.14100
C867        C  0.17283114  0.95834918  0.66842134     0.08100
C868        C  0.16151497  0.92143447  0.65875908    -0.14100
H869        H  0.16882088  0.86078584  0.66573185     0.12100
H870        H  0.23826604  0.93318670  0.72787891     0.12100
H871        H  0.21053116  0.98864799  0.70234984     0.12100
H872        H  0.14015339  0.91786337  0.63943311     0.12100
C873        C  0.77238307  0.69753321  0.61461144    -0.14100
C874        C  0.79115712  0.69088747  0.64704476     0.08100
C875        C  0.81900517  0.66448341  0.64719119    -0.14100
C876        C  0.82909289  0.64682635  0.61508787    -0.14100
C877        C  0.81161901  0.65545976  0.58230293     0.08100
C878        C  0.78252670  0.68015781  0.58271332    -0.14100
H879        H  0.75032509  0.71724979  0.61342165     0.12100
H880        H  0.83370048  0.65845743  0.67171060     0.12100
H881        H  0.85147248  0.62751587  0.61577211     0.12100
H882        H  0.76822545  0.68710395  0.55816087     0.12100
C883        C  0.72854552  0.58094956  0.80005993    -0.14100
C884        C  0.70614954  0.57822570  0.83053571     0.08100
C885        C  0.70125526  0.61074145  0.85164140    -0.14100
C886        C  0.71871570  0.64473520  0.84317242    -0.14100
C887        C  0.74154521  0.64756013  0.81315158     0.08100
C888        C  0.74592263  0.61543168  0.79129181    -0.14100
H889        H  0.73276346  0.55645432  0.78316022     0.12100
H890        H  0.68439275  0.60986977  0.87537997     0.12100
H891        H  0.71452661  0.66884527  0.86058916     0.12100
H892        H  0.76339040  0.61668514  0.76801536     0.12100
C893        C  0.60735801  0.86434494  0.70193030    -0.14100
C894        C  0.57665375  0.84271076  0.71020020     0.08100
C895        C  0.57970399  0.81292646  0.73579578    -0.14100
C896        C  0.61327789  0.80346025  0.75057718    -0.14100
C897        C  0.64416748  0.82366321  0.73993578     0.08100
C898        C  0.64044195  0.85493726  0.71644835    -0.14100
H899        H  0.60625008  0.88794326  0.68296487     0.12100
H900        H  0.55660441  0.79581100  0.74297106     0.12100
H901        H  0.61542083  0.77891971  0.76832194     0.12100
H902        H  0.66364817  0.87117306  0.70779363     0.12100
C903        C  0.69136736  0.86768164  0.92038126    -0.14100
C904        C  0.70586202  0.85934166  0.95459367     0.08100
C905        C  0.73336575  0.83253368  0.95715464    -0.14100
C906        C  0.74607035  0.81448509  0.92652515    -0.14100
C907        C  0.73174452  0.82266370  0.89227151     0.08100
C908        C  0.70424548  0.84954727  0.88947234    -0.14100
H909        H  0.67003128  0.88810073  0.91747642     0.12100
H910        H  0.74517230  0.82523338  0.98294468     0.12100
H911        H  0.76725438  0.79394165  0.92985033     0.12100
H912        H  0.69247928  0.85627696  0.86352763     0.12100
C913        C  0.80667851  0.93307498  0.72621442    -0.14100
C914        C  0.83249267  0.93110515  0.69863012     0.08100
C915        C  0.84300938  0.89514275  0.68651172    -0.14100
C916        C  0.82623536  0.86224448  0.69949414    -0.14100
C917        C  0.79867823  0.86437096  0.72509938     0.08100
C918        C  0.79000673  0.89992880  0.73945752    -0.14100
H919        H  0.79819277  0.96029413  0.73644524     0.12100
H920        H  0.86311158  0.89237163  0.66571948     0.12100
H921        H  0.83380874  0.83513149  0.68828111     0.12100
H922        H  0.76885583  0.90235920  0.75921457     0.12100
C923        C  0.89938075  0.67195846  0.82222351    -0.14100
C924        C  0.89245734  0.70048946  0.79645199     0.08100
C925        C  0.92169050  0.71865255  0.77943916    -0.14100
C926        C  0.95703279  0.70939711  0.78938932    -0.14100
C927        C  0.96365704  0.68174266  0.81641438     0.08100
C928        C  0.93418802  0.66272278  0.83195707    -0.14100
H929        H  0.87760262  0.65731651  0.83582755     0.12100
H930        H  0.91722877  0.74115488  0.75981769     0.12100
H931        H  0.97901442  0.72456699  0.77671509     0.12100
H932        H  0.93779964  0.64095725  0.85248361     0.12100
C933        C  0.45209100  0.88181163  0.99019616    -0.17200
C934        C  0.45833497  0.90497480  0.01797080    -0.32300
H935        H  0.46206828  0.88931813  0.96348088     0.11900
H936        H  0.44887850  0.89782703  0.04493569     0.12400
C937        C  0.40293536  0.07892165  0.98039770    -0.17200
C938        C  0.41864046  0.06408552  0.00967062    -0.32300
H939        H  0.41330012  0.07291505  0.95366601     0.11900
H940        H  0.40913363  0.07083778  0.03654251     0.12400
C941        C  0.59992168  0.94798393  0.98913182    -0.17200
C942        C  0.62155645  0.94357348  0.01752745    -0.32300
H943        H  0.60624546  0.93507511  0.96342258     0.11900
H944        H  0.61478793  0.95642063  0.04317264     0.12400
C945        C  0.56645463  0.09709732  0.97991313    -0.17200
C946        C  0.58364184  0.11309355  0.00747155    -0.32300
H947        H  0.57501456  0.10243454  0.95229285     0.11900
H948        H  0.57476880  0.10750657  0.03497964     0.12400
C949        C  0.99917520  0.43960109  0.91746803    -0.17200
C950        C  0.02474832  0.42845015  0.89444140    -0.32300
H951        H  0.97187067  0.43003252  0.91341088     0.11900
H952        H  0.05189021  0.43860748  0.89841028     0.12400
C953        C  0.02241026  0.43390097  0.07588263    -0.17200
C954        C  0.99440255  0.42539535  0.09741709    -0.32300
H955        H  0.04811863  0.42087265  0.08112353     0.11900
H956        H  0.96893045  0.43890730  0.09204414     0.12400
C957        C  0.01116353  0.59703701  0.92051372    -0.17200
C958        C  0.03959334  0.61089074  0.90211447    -0.32300
H959        H  0.98459191  0.60684208  0.91354551     0.11900
H960        H  0.06621775  0.60144860  0.90932052     0.12400
C961        C  0.03145061  0.59137981  0.07754459    -0.17200
C962        C  0.00343855  0.60549947  0.09595932    -0.32300
H963        H  0.05847128  0.59922055  0.08514690     0.11900
H964        H  0.97661973  0.59724386  0.08799591     0.12400
C965        C  0.44813651  0.50708658  0.07826699    -0.17200
C966        C  0.43280297  0.47573968  0.09342529    -0.32300
H967        H  0.43999678  0.53514213  0.08690776     0.11900
H968        H  0.44146668  0.44787244  0.08471774     0.12400
C969        C  0.59695399  0.48744316  0.08184557    -0.17200
C970        C  0.61238001  0.51799114  0.09784535    -0.32300
H971        H  0.60251085  0.45903490  0.09207094     0.11900
H972        H  0.60654600  0.54627119  0.08745446     0.12400
C973        C  0.45092779  0.51652263  0.92169561    -0.17200
C974        C  0.43427052  0.48854620  0.90380488    -0.32300
H975        H  0.44520456  0.54589533  0.91454928     0.11900
H976        H  0.44050574  0.45932881  0.91115530     0.12400
C977        C  0.60066322  0.48571571  0.92372463    -0.17200
C978        C  0.61828776  0.51461957  0.90754943    -0.32300
H979        H  0.60649165  0.45674422  0.91582641     0.11900
H980        H  0.61200712  0.54346415  0.91554130     0.12400
C981        C  0.07003684  0.59894965  0.47703019    -0.17200
C982        C  0.08081134  0.62147048  0.50399930    -0.32300
H983        H  0.07918179  0.60415242  0.44958074     0.11900
H984        H  0.07147155  0.61597758  0.53134065     0.12400
C985        C  0.08994933  0.44051254  0.50711691    -0.17200
C986        C  0.10179791  0.42117339  0.47859081    -0.32300
H987        H  0.10219284  0.43675525  0.53346109     0.11900
H988        H  0.08923270  0.42498331  0.45239581     0.12400
C989        C  0.93438953  0.42757122  0.51809508    -0.17200
C990        C  0.91413114  0.41508644  0.49092532    -0.32300
H991        H  0.92697924  0.42142233  0.54591013     0.11900
H992        H  0.92136694  0.42219370  0.46324121     0.12400
C993        C  0.91932159  0.57416252  0.48815871    -0.17200
C994        C  0.90186199  0.58497606  0.51777528    -0.32300
H995        H  0.90912146  0.58094355  0.46143678     0.11900
H996        H  0.91187669  0.57731577  0.54437528     0.12400
C997        C  0.52193531  0.07076564  0.57888255    -0.17200
C998        C  0.49568155  0.08228046  0.60083130    -0.32300
H999        H  0.54915647  0.07998026  0.58409264     0.11900
H1000       H  0.46854432  0.07252243  0.59606042     0.12400
C1001       C  0.52204194  0.06435130  0.41743577    -0.17200
C1002       C  0.49372358  0.07652770  0.39801612    -0.32300
H1003       H  0.54887219  0.07208677  0.40888566     0.11900
H1004       H  0.46713397  0.06792180  0.40664897     0.12400
C1005       C  0.50326669  0.90935447  0.42706115    -0.17200
C1006       C  0.47496559  0.89898274  0.40694257    -0.32300
H1007       H  0.52896502  0.89641053  0.42171880     0.11900
H1008       H  0.44887266  0.91108200  0.41203582     0.12400
C1009       C  0.49387847  0.91717502  0.58538571    -0.17200
C1010       C  0.52057437  0.90549985  0.60700242    -0.32300
H1011       H  0.46662836  0.90868437  0.59164208     0.11900
H1012       H  0.54759252  0.91502622  0.60098158     0.12400
loop_ 
_geom_bond_atom_site_label_1 
_geom_bond_atom_site_label_2 
_geom_bond_distance 
_geom_bond_site_symmetry_2 
_ccdc_geom_bond_type 
O1           Ni9   1.945   1_545  S
O1           C11   1.288       .  A
O2           Ni9   1.942       .  S
O2           C12   1.285       .  A
O3           Ni9   1.923       .  S
O3           C13   1.280       .  A
O4           Ni9   1.926   1_545  S
O4           C14   1.283       .  A
O5          Ni10   1.939   1_545  S
O5           C14   1.285       .  A
O6          Ni10   1.938       .  S
O6           C13   1.287       .  A
O7          Ni10   1.906       .  S
O7           C12   1.278       .  A
O8          Ni10   1.907   1_545  S
O8           C11   1.277       .  A
Ni9         Ni10   2.385       .  S
C11         C997   1.483       .  S
C12        C1005   1.480       .  S
C13        C1009   1.491       .  S
C14        C1001   1.496       .  S
O15         Ni23   1.912   1_655  S
O15          C25   1.283       .  A
O16         Ni23   1.916       .  S
O16          C26   1.280       .  A
O17         Ni23   1.905       .  S
O17          C27   1.281       .  A
O18         Ni23   1.905   1_655  S
O18          C28   1.277       .  A
O19         Ni24   1.905   1_655  S
O19          C28   1.281       .  A
O20         Ni24   1.912       .  S
O20          C27   1.279       .  A
O21         Ni24   1.906       .  S
O21          C26   1.281       .  A
O22         Ni24   1.908   1_655  S
O22          C25   1.277       .  A
Ni23        Ni24   2.392       .  S
C25         C989   1.469       .  S
C26         C981   1.472       .  S
C27         C985   1.468       .  S
C28         C993   1.462       .  S
O29         Ni37   1.950       .  S
O29          C39   1.289       .  A
O30         Ni37   1.953   1_556  S
O30          C40   1.290       .  A
O31         Ni37   1.919   1_556  S
O31          C41   1.278       .  A
O32         Ni37   1.918       .  S
O32          C42   1.280       .  A
O33         Ni38   1.948       .  S
O33          C42   1.288       .  A
O34         Ni38   1.950   1_556  S
O34          C41   1.289       .  A
O35         Ni38   1.919   1_556  S
O35          C40   1.278       .  A
O36         Ni38   1.920       .  S
O36          C39   1.280       .  A
Ni37        Ni38   2.383       .  S
C39         C969   1.499       .  S
C40         C973   1.498       .  S
C41         C977   1.496       .  S
C42         C965   1.497       .  S
O43         Ni51   1.930   1_554  S
O43          C53   1.282       .  A
O44         Ni51   1.928       .  S
O44          C54   1.283       .  A
O45         Ni51   1.939   1_554  S
O45          C55   1.285       .  A
O46         Ni51   1.938       .  S
O46          C56   1.286       .  A
O47         Ni52   1.922   1_556  S
O47          C56   1.280   1_655  A
O48         Ni52   1.919       .  S
O48          C55   1.282   1_655  A
O49         Ni52   1.927   1_556  S
O49          C54   1.283   1_655  A
O50         Ni52   1.927       .  S
O50          C53   1.284   1_655  A
Ni51        Ni52   2.385   1_456  S
C53         C953   1.490       .  S
C54         C957   1.486       .  S
C55         C961   1.493       .  S
C56         C949   1.490   1_455  S
O57         Ni65   1.906       .  S
O57          C67   1.276       .  A
O58         Ni65   1.903   1_565  S
O58          C68   1.281   1_556  A
O59         Ni65   1.908       .  S
O59          C69   1.282   1_556  A
O60         Ni65   1.909   1_565  S
O60          C70   1.278       .  A
O61         Ni66   1.906   1_565  S
O61          C70   1.282   1_554  A
O62         Ni66   1.905       .  S
O62          C69   1.277       .  A
O63         Ni66   1.911   1_565  S
O63          C68   1.278       .  A
O64         Ni66   1.903       .  S
O64          C67   1.282   1_554  A
Ni65        Ni66   2.393   1_556  S
C67         C945   1.465       .  S
C68         C934   1.466       .  S
C69         C938   1.463       .  S
C70         C941   1.467       .  S
O71         Ni77   1.917       .  S
O71          C92   1.271       .  A
O72         Ni95   1.930       .  S
O72          C81   1.276       .  A
O73         Ni77   1.905       .  S
O73         Ni95   1.916       .  S
O73         Ni89   1.927       .  S
O73          H96   0.966       .  S
C74          O91   1.270       .  A
C74          O83   1.264       .  A
C74         C897   1.486       .  S
O75         Ni94   1.891       .  S
O75          C81   1.266       .  A
O76         Ni94   1.893       .  S
O76          C78   1.271       .  A
Ni77         O80   1.928       .  S
Ni77         O82   1.892       .  S
C78          O88   1.285       .  A
C78         C917   1.479       .  S
O79         Ni95   1.937       .  S
O79          C85   1.274       .  A
O80          C85   1.271       .  A
C81         C874   1.482       .  S
O82          C84   1.269       .  A
O83         Ni94   1.918       .  S
C84          O90   1.282       .  A
C84         C887   1.486       .  S
C85         C924   1.491       .  S
H86          O87   0.964       .  S
O87         Ni95   1.935       .  S
O87         Ni89   1.907       .  S
O87         Ni94   1.908       .  S
O88         Ni89   1.970       .  S
Ni89         O93   1.912       .  S
Ni89         O91   1.942       .  S
O90         Ni95   1.963       .  S
C92          O93   1.271       .  A
C92         C907   1.484       .  S
O97        Ni103   1.927       .  S
O97         C118   1.273       .  A
O98        Ni121   1.937       .  S
O98         C107   1.275       .  A
O99        Ni103   1.919       .  S
O99        Ni121   1.931       .  S
O99        Ni115   1.925       .  S
O99         H122   0.965       .  S
C100        O117   1.264       .  A
C100        O109   1.276       .  A
C100        C854   1.469       .  S
O101       Ni120   1.940       .  S
O101        C107   1.277       .  A
O102       Ni120   1.908       .  S
O102        C104   1.271       .  A
Ni103       O106   1.935       .  S
Ni103       O108   1.899       .  S
C104        O114   1.283       .  A
C104        C824   1.495       .  S
O105       Ni121   1.912       .  S
O105        C111   1.266       .  A
O106        C111   1.272       .  A
C107        C864   1.510       .  S
O108        C110   1.271       .  A
O109       Ni120   1.947       .  S
C110        O116   1.286       .  A
C110        C834   1.493       .  S
C111        C814   1.476       .  S
H112        O113   0.967       .  S
O113       Ni121   1.916       .  S
O113       Ni115   1.920       .  S
O113       Ni120   1.917       .  S
O114       Ni115   1.972       .  S
Ni115       O119   1.935       .  S
Ni115       O117   1.896       .  S
O116       Ni121   1.977       .  S
C118        O119   1.271       .  A
C118        C844   1.507       .  S
O123       Ni129   1.907       .  S
O123        C144   1.266       .  A
O124       Ni147   1.934       .  S
O124        C133   1.274       .  A
O125       Ni129   1.900       .  S
O125       Ni147   1.907       .  S
O125       Ni141   1.932       .  S
O125        H148   0.965       .  S
C126        O143   1.284       .  A
C126        O135   1.279       .  A
C126        C804   1.490       .  S
O127       Ni146   1.909       .  S
O127        C133   1.266       .  A
O128       Ni146   1.902       .  S
O128        C130   1.266       .  A
Ni129       O132   1.922       .  S
Ni129       O134   1.897       .  S
C130        O140   1.280       .  A
C130        C764   1.497       .  S
O131       Ni147   1.935       .  S
O131        C137   1.282       .  A
O132        C137   1.278       .  A
C133        C794   1.477       .  S
O134        C136   1.266       .  A
O135       Ni146   1.921       .  S
C136        O142   1.281       .  A
C136        C774   1.500       .  S
C137        C787   1.484       .  S
H138        O139   0.966       .  S
O139       Ni147   1.930       .  S
O139       Ni141   1.906       .  S
O139       Ni146   1.895       .  S
O140       Ni141   1.960       .  S
Ni141       O145   1.932       .  S
Ni141       O143   1.942       .  S
O142       Ni147   1.964       .  S
C144        O145   1.272       .  A
C144        C754   1.476       .  S
O149       Ni155   1.924       .  S
O149        C170   1.269       .  A
O150       Ni173   1.938       .  S
O150        C159   1.272       .  A
O151       Ni155   1.898       .  S
O151       Ni173   1.922       .  S
O151       Ni167   1.904       .  S
O151        H174   0.968       .  S
C152        O169   1.276       .  A
C152        O161   1.278       .  A
C152        C744   1.467       .  S
O153       Ni172   1.913       .  S
O153        C159   1.266       .  A
O154       Ni172   1.898       .  S
O154        C156   1.265       .  A
Ni155       O158   1.918       .  S
Ni155       O160   1.899       .  S
C156        O166   1.272       .  A
C156        C697   1.474       .  S
O157       Ni173   1.902       .  S
O157        C163   1.274       .  A
O158        C163   1.277       .  A
C159        C727   1.486       .  S
O160        C162   1.266       .  A
O161       Ni172   1.909       .  S
C162        O168   1.274       .  A
C162        C714   1.478       .  S
C163        C734   1.473       .  S
H164        O165   0.965       .  S
O165       Ni173   1.900       .  S
O165       Ni167   1.906       .  S
O165       Ni172   1.890       .  S
O166       Ni167   1.934       .  S
Ni167       O171   1.922       .  S
Ni167       O169   1.907       .  S
O168       Ni173   1.942       .  S
C170        O171   1.269       .  A
C170        C707   1.478       .  S
O175       Ni181   1.908       .  S
O175        C196   1.268       .  A
O176       Ni199   1.922       .  S
O176        C185   1.267       .  A
O177       Ni181   1.899       .  S
O177       Ni199   1.899       .  S
O177       Ni193   1.939       .  S
O177        H200   0.965       .  S
C178        O195   1.287       .  A
C178        O187   1.277       .  A
C178        C684   1.490       .  S
O179       Ni198   1.896       .  S
O179        C185   1.261       .  A
O180       Ni198   1.892       .  S
O180        C182   1.265       .  A
Ni181       O184   1.928       .  S
Ni181       O186   1.913       .  S
C182        O192   1.281       .  A
C182        C644   1.499       .  S
O183       Ni199   1.953       .  S
O183        C189   1.286       .  A
O184        C189   1.281       .  A
C185        C654   1.467       .  S
O186        C188   1.267       .  A
O187       Ni198   1.915       .  S
C188        O194   1.275       .  A
C188        C674   1.500       .  S
C189        C664   1.501       .  S
H190        O191   0.966       .  S
O191       Ni199   1.943       .  S
O191       Ni193   1.904       .  S
O191       Ni198   1.898       .  S
O192       Ni193   1.968       .  S
Ni193       O197   1.928       .  S
Ni193       O195   1.959       .  S
O194       Ni199   1.949       .  S
C196        O197   1.275       .  A
C196        C637   1.477       .  S
O201       Ni207   1.924       .  S
O201        C222   1.271       .  A
O202       Ni225   1.936       .  S
O202        C211   1.275       .  A
O203       Ni207   1.920       .  S
O203       Ni225   1.931       .  S
O203       Ni219   1.933       .  S
O203        H226   0.965       .  S
C204        O221   1.272       .  A
C204        O213   1.277       .  A
C204        C577   1.474       .  S
O205       Ni224   1.929       .  S
O205        C211   1.272       .  A
O206       Ni224   1.904       .  S
O206        C208   1.268       .  A
Ni207       O210   1.931       .  S
Ni207       O212   1.899       .  S
C208        O218   1.279       .  A
C208        C604   1.498       .  S
O209       Ni225   1.910       .  S
O209        C215   1.268       .  A
O210        C215   1.271       .  A
C211        C614   1.498       .  S
O212        C214   1.271       .  A
O213       Ni224   1.926       .  S
C214        O220   1.287       .  A
C214        C584   1.497       .  S
C215        C594   1.480       .  S
H216        O217   0.967       .  S
O217       Ni225   1.902       .  S
O217       Ni219   1.909       .  S
O217       Ni224   1.907       .  S
O218       Ni219   1.962       .  S
Ni219       O223   1.912       .  S
Ni219       O221   1.909       .  S
O220       Ni225   1.984       .  S
C222        O223   1.268       .  A
C222        C627   1.489       .  S
O227       Ni233   1.906       .  S
O227        C248   1.269       .  A
O228       Ni251   1.912       .  S
O228        C237   1.270       .  A
O229       Ni233   1.910       .  S
O229       Ni251   1.905       .  S
O229       Ni245   1.927       .  S
O229        H252   0.967       .  S
C230        O247   1.272       .  A
C230        O239   1.267       .  A
C230        C554   1.487       .  S
O231       Ni250   1.901       .  S
O231        C237   1.267       .  A
O232       Ni250   1.894       .  S
O232        C234   1.269       .  A
Ni233       O236   1.930       .  S
Ni233       O238   1.899       .  S
C234        O244   1.281       .  A
C234        C544   1.480       .  S
O235       Ni251   1.928       .  S
O235        C241   1.270       .  A
O236        C241   1.269       .  A
C237        C517   1.478       .  S
O238        C240   1.270       .  A
O239       Ni250   1.923       .  S
C240        O246   1.282       .  A
C240        C524   1.484       .  S
C241        C564   1.484       .  S
H242        O243   0.965       .  S
O243       Ni251   1.932       .  S
O243       Ni245   1.913       .  S
O243       Ni250   1.911       .  S
O244       Ni245   1.963       .  S
Ni245       O249   1.914       .  S
Ni245       O247   1.935       .  S
O246       Ni251   1.962       .  S
C248        O249   1.272       .  A
C248        C534   1.477       .  S
O253       Ni261   1.903       .  S
O253        C263   1.275       .  A
O254       Ni261   1.899   1_455  S
O254        C264   1.274       .  A
O255       Ni261   1.963       .  S
O255        C265   1.292       .  A
O256       Ni261   1.963   1_455  S
O256        C266   1.293       .  A
O257       Ni262   1.904   1_455  S
O257        C266   1.274   1_565  A
O258       Ni262   1.904       .  S
O258        C265   1.275   1_565  A
O259       Ni262   1.964   1_455  S
O259        C264   1.292   1_565  A
O260       Ni262   1.963       .  S
O260        C263   1.292   1_565  A
Ni261      Ni262   2.384   1_545  S
C263        C506   1.493       .  S
C264        C501   1.490       .  S
C265        C497   1.493       .  S
C266        C510   1.494       .  S
C267        C624   1.491       .  S
C267        N268   1.362       .  A
C267        N272   1.359       .  A
N268        C269   1.362       .  A
C269        C502   1.497       .  S
C269        N270   1.370   1_565  A
N270        C271   1.366       .  A
C271        C488   1.496       .  S
C271        N272   1.357   1_545  A
O273       Ni279   1.919       .  S
O273        C294   1.269       .  A
O274       Ni297   1.933       .  S
O274        C283   1.275       .  A
O275       Ni279   1.891       .  S
O275       Ni297   1.914       .  S
O275       Ni291   1.905       .  S
O275        H298   0.966       .  S
C276        O293   1.278       .  A
C276        O285   1.278       .  A
C276        C438   1.463       .  S
O277       Ni296   1.923       .  S
O277        C283   1.271       .  A
O278       Ni296   1.907       .  S
O278        C280   1.268       .  A
Ni279       O282   1.909       .  S
Ni279       O284   1.904       .  S
C280        O290   1.279       .  A
C280        C491   1.488       .  S
O281       Ni297   1.922       .  S
O281        C287   1.280       .  A
O282        C287   1.278       .  A
C283        C458   1.492       .  S
O284        C286   1.267       .  A
O285       Ni296   1.908       .  S
C286        O292   1.279       .  A
C286        C451   1.496       .  S
C287        C471   1.476       .  S
H288        O289   0.966       .  S
O289       Ni297   1.911       .  S
O289       Ni291   1.911       .  S
O289       Ni296   1.896       .  S
O290       Ni291   1.959       .  S
Ni291       O295   1.941       .  S
Ni291       O293   1.913       .  S
O292       Ni297   1.962       .  S
C294        O295   1.276       .  A
C294        C478   1.496       .  S
C299        C567   1.492       .  S
C299        N300   1.359       .  A
C299        N304   1.364       .  A
N300        C301   1.355       .  A
C301        C954   1.488       .  S
C301        N302   1.361   1_655  A
N302        C303   1.368       .  A
C303        C481   1.497       .  S
C303        N304   1.366   1_455  A
C305        C747   1.465       .  S
C305        N306   1.352       .  A
C305        N310   1.350       .  A
N306        C307   1.355       .  A
C307        C937   1.461       .  S
C307        N308   1.362   1_556  A
N308        C309   1.357       .  A
C309        C468   1.473       .  S
C309        N310   1.352   1_554  A
C311        C557   1.495       .  S
C311        N312   1.369       .  A
C311        N316   1.364       .  A
N312        C313   1.362       .  A
C313       C1002   1.492       .  S
C313        N314   1.359       .  A
N314        C315   1.361       .  A
C315        C461   1.494       .  S
C315        N316   1.362       .  A
C317        C677   1.501       .  S
C317        N318   1.371       .  A
C317        N322   1.363   1_565  A
N318        C319   1.370   1_565  A
C319        C498   1.496       .  S
C319        N320   1.355       .  A
N320        C321   1.359       .  A
C321        C547   1.488       .  S
C321        N322   1.360       .  A
C323        C537   1.477       .  S
C323        N324   1.360   1_554  A
C323        N328   1.349       .  A
N324        C325   1.363       .  A
C325        C797   1.486       .  S
C325        N326   1.360       .  A
N326        C327   1.360   1_556  A
C327        C946   1.459       .  S
C327        N328   1.350       .  A
C329        C647   1.501       .  S
C329        N330   1.368       .  A
C329        N334   1.359       .  A
N330        C331   1.366       .  A
C331        C970   1.497       .  S
C331        N332   1.360       .  A
N332        C333   1.364       .  A
C333        C527   1.488       .  S
C333        N334   1.362       .  A
C335        C757   1.485       .  S
C335        N336   1.361       .  A
C335        N340   1.361       .  A
N336        C337   1.362       .  A
C337        C990   1.465       .  S
C337        N338   1.352       .  A
N338        C339   1.351       .  A
C339        C514   1.478       .  S
C339        N340   1.358       .  A
C341        C617   1.500       .  S
C341        N342   1.365       .  A
C341        N346   1.363       .  A
N342        C343   1.366       .  A
C343        C966   1.494       .  S
C343        N344   1.368       .  A
N344        C345   1.363       .  A
C345        C448   1.501       .  S
C345        N346   1.360       .  A
C347        C687   1.503       .  S
C347        N348   1.361       .  A
C347        N352   1.369   1_655  A
N348        C349   1.356   1_655  A
C349        C962   1.488       .  S
C349        N350   1.359       .  A
N350        C351   1.367       .  A
C351        C607   1.501       .  S
C351        N352   1.371       .  A
C353        C857   1.480       .  S
C353        N354   1.363       .  A
C353        N358   1.353       .  A
N354        C355   1.364   1_556  A
C355        C597   1.481       .  S
C355        N356   1.359       .  A
N356        C357   1.354   1_554  A
C357        C933   1.462       .  S
C357        N358   1.348       .  A
C359        C667   1.497       .  S
C359        N360   1.356       .  A
C359        N364   1.370       .  A
N360        C361   1.355       .  A
C361       C1006   1.491       .  S
C361        N362   1.358       .  A
N362        C363   1.367       .  A
C363        C587   1.503       .  S
C363        N364   1.373       .  A
C365        C817   1.488       .  S
C365        N366   1.357       .  A
C365        N370   1.366       .  A
N366        C367   1.349       .  A
C367        C982   1.468       .  S
C367        N368   1.351       .  A
N368        C369   1.359       .  A
C369        C574   1.483       .  S
C369        N370   1.367       .  A
C371        C904   1.484       .  S
C371        N372   1.360   1_556  A
C371        N376   1.360       .  A
N372        C373   1.358       .  A
C373        C657   1.476       .  S
C373        N374   1.351       .  A
N374        C375   1.351       .  A
C375        C942   1.462       .  S
C375        N376   1.360   1_554  A
C377        C737   1.470       .  S
C377        N378   1.351       .  A
C377        N382   1.358       .  A
N378        C379   1.350       .  A
C379        C441   1.466       .  S
C379        N380   1.353       .  A
N380        C381   1.357       .  A
C381        C986   1.464       .  S
C381        N382   1.362       .  A
C383        C807   1.489       .  S
C383        N384   1.368       .  A
C383        N388   1.366   1_655  A
N384        C385   1.362   1_655  A
C385        C950   1.489       .  S
C385        N386   1.354       .  A
N386        C387   1.359       .  A
C387        C724   1.492       .  S
C387        N388   1.362       .  A
C389        C867   1.512       .  S
C389        N390   1.375       .  A
C389        N394   1.362   1_565  A
N390        C391   1.377   1_565  A
C391        C509   1.495       .  S
C391        N392   1.358       .  A
N392        C393   1.354       .  A
C393        C717   1.487       .  S
C393        N394   1.356       .  A
C395        C784   1.488       .  S
C395        N396   1.362       .  A
C395        N400   1.365       .  A
N396        C397   1.358       .  A
C397        C704   1.482       .  S
C397        N398   1.360       .  A
N398        C399   1.355       .  A
C399        C998   1.487       .  S
C399        N400   1.363       .  A
C401        C847   1.510       .  S
C401        N402   1.360       .  A
C401        N406   1.376       .  A
N402        C403   1.352       .  A
C403        C694   1.481       .  S
C403        N404   1.353       .  A
N404        C405   1.359       .  A
C405        C974   1.495       .  S
C405        N406   1.379       .  A
C407        C914   1.486       .  S
C407        N408   1.358       .  A
C407        N412   1.357   1_565  A
N408        C409   1.356       .  A
C409        C505   1.496       .  S
C409        N410   1.371   1_565  A
N410        C411   1.372       .  A
C411        C777   1.499       .  S
C411        N412   1.360       .  A
C413        C927   1.499   1_455  S
C413        N414   1.368       .  A
C413        N418   1.362       .  A
N414        C415   1.370       .  A
C415        C837   1.499       .  S
C415        N416   1.364       .  A
N416        C417   1.356       .  A
C417        C958   1.489       .  S
C417        N418   1.355       .  A
C419        C894   1.496       .  S
C419        N420   1.366       .  A
C419        N424   1.358       .  A
N420        C421   1.371       .  A
C421        C827   1.501       .  S
C421        N422   1.369       .  A
N422        C423   1.362       .  A
C423       C1010   1.489       .  S
C423        N424   1.353       .  A
C425        C884   1.488       .  S
C425        N426   1.360       .  A
C425        N430   1.356       .  A
N426        C427   1.365       .  A
C427        C767   1.501       .  S
C427        N428   1.374       .  A
N428        C429   1.369       .  A
C429        C978   1.494       .  S
C429        N430   1.353       .  A
C431        C877   1.479       .  S
C431        N432   1.352       .  A
C431        N436   1.363       .  A
N432        C433   1.350       .  A
C433        C994   1.459       .  S
C433        N434   1.356       .  A
N434        C435   1.356       .  A
C435        C634   1.483       .  S
C435        N436   1.363       .  A
C437        C438   1.404       .  A
C437        C442   1.396       .  A
C437        H443   1.083       .  S
C438        C439   1.401       .  A
C439        C440   1.387       .  A
C439        H444   1.084       .  S
C440        C441   1.403       .  A
C440        H445   1.083       .  S
C441        C442   1.404       .  A
C442        H446   1.083       .  S
C447        C448   1.406       .  A
C447        C452   1.401       .  A
C447        H453   1.083       .  S
C448        C449   1.412       .  A
C449        C450   1.414       .  A
C449        H454   1.083       .  S
C450        C451   1.408       .  A
C450        H455   1.083       .  S
C451        C452   1.407       .  A
C452        H456   1.083       .  S
C457        C458   1.407       .  A
C457        C462   1.408       .  A
C457        H463   1.083       .  S
C458        C459   1.407       .  A
C459        C460   1.398       .  A
C459        H464   1.083       .  S
C460        C461   1.406       .  A
C460        H465   1.083       .  S
C461        C462   1.410       .  A
C462        H466   1.083       .  S
C467        C468   1.406       .  A
C467        C472   1.402       .  A
C467        H473   1.083       .  S
C468        C469   1.402       .  A
C469        C470   1.385       .  A
C469        H474   1.083       .  S
C470        C471   1.405       .  A
C470        H475   1.083       .  S
C471        C472   1.407       .  A
C472        H476   1.083       .  S
C477        C478   1.409       .  A
C477        C482   1.396       .  A
C477        H483   1.083       .  S
C478        C479   1.407       .  A
C479        C480   1.412       .  A
C479        H484   1.083       .  S
C480        C481   1.413       .  A
C480        H485   1.083       .  S
C481        C482   1.404       .  A
C482        H486   1.083       .  S
C487        C488   1.412       .  A
C487        C492   1.408       .  A
C487        H493   1.083       .  S
C488        C489   1.405       .  A
C489        C490   1.405       .  A
C489        H494   1.083       .  S
C490        C491   1.409       .  A
C490        H495   1.083       .  S
C491        C492   1.403       .  A
C492        H496   1.083       .  S
C497        C498   1.342       .  D
C497        H499   1.087   1_545  S
C498        H500   1.087       .  S
C501        C502   1.344   1_545  D
C501        H503   1.087       .  S
C502        H504   1.086       .  S
C505        C506   1.342   1_565  D
C505        H507   1.087       .  S
C506        H508   1.087       .  S
C509        C510   1.340       .  D
C509        H511   1.087       .  S
C510        H512   1.087   1_545  S
C513        C514   1.410       .  A
C513        C518   1.399       .  A
C513        H519   1.083       .  S
C514        C515   1.400       .  A
C515        C516   1.390       .  A
C515        H520   1.083       .  S
C516        C517   1.408       .  A
C516        H521   1.083       .  S
C517        C518   1.403       .  A
C518        H522   1.083       .  S
C523        C524   1.405       .  A
C523        C528   1.402       .  A
C523        H529   1.083       .  S
C524        C525   1.406       .  A
C525        C526   1.397       .  A
C525        H530   1.083       .  S
C526        C527   1.405       .  A
C526        H531   1.083       .  S
C527        C528   1.409       .  A
C528        H532   1.083       .  S
C533        C534   1.409       .  A
C533        C538   1.392       .  A
C533        H539   1.083       .  S
C534        C535   1.401       .  A
C535        C536   1.398       .  A
C535        H540   1.083       .  S
C536        C537   1.411       .  A
C536        H541   1.083       .  S
C537        C538   1.400       .  A
C538        H542   1.083       .  S
C543        C544   1.404       .  A
C543        C548   1.394       .  A
C543        H549   1.083       .  S
C544        C545   1.405       .  A
C545        C546   1.404       .  A
C545        H550   1.083       .  S
C546        C547   1.409       .  A
C546        H551   1.083       .  S
C547        C548   1.406       .  A
C548        H552   1.083       .  S
C553        C554   1.405       .  A
C553        C558   1.409       .  A
C553        H559   1.083       .  S
C554        C555   1.407       .  A
C555        C556   1.397       .  A
C555        H560   1.083       .  S
C556        C557   1.404       .  A
C556        H561   1.083       .  S
C557        C558   1.413       .  A
C558        H562   1.083       .  S
C563        C564   1.406       .  A
C563        C568   1.407       .  A
C563        H569   1.083       .  S
C564        C565   1.404       .  A
C565        C566   1.395       .  A
C565        H570   1.084       .  S
C566        C567   1.408       .  A
C566        H571   1.083       .  S
C567        C568   1.409       .  A
C568        H572   1.083       .  S
C573        C574   1.406       .  A
C573        C578   1.403       .  A
C573        H579   1.083       .  S
C574        C575   1.408       .  A
C575        C576   1.391       .  A
C575        H580   1.083       .  S
C576        C577   1.400       .  A
C576        H581   1.084       .  S
C577        C578   1.406       .  A
C578        H582   1.083       .  S
C583        C584   1.409       .  A
C583        C588   1.413       .  A
C583        H589   1.083       .  S
C584        C585   1.407       .  A
C585        C586   1.399       .  A
C585        H590   1.083       .  S
C586        C587   1.408       .  A
C586        H591   1.083       .  S
C587        C588   1.412       .  A
C588        H592   1.082       .  S
C593        C594   1.405       .  A
C593        C598   1.401       .  A
C593        H599   1.083       .  S
C594        C595   1.405       .  A
C595        C596   1.394       .  A
C595        H600   1.083       .  S
C596        C597   1.406       .  A
C596        H601   1.083       .  S
C597        C598   1.406       .  A
C598        H602   1.083       .  S
C603        C604   1.410       .  A
C603        C608   1.415       .  A
C603        H609   1.083       .  S
C604        C605   1.406       .  A
C605        C606   1.398       .  A
C605        H610   1.083       .  S
C606        C607   1.407       .  A
C606        H611   1.083       .  S
C607        C608   1.412       .  A
C608        H612   1.083       .  S
C613        C614   1.408       .  A
C613        C618   1.398       .  A
C613        H619   1.083       .  S
C614        C615   1.408       .  A
C615        C616   1.412       .  A
C615        H620   1.083       .  S
C616        C617   1.412       .  A
C616        H621   1.083       .  S
C617        C618   1.407       .  A
C618        H622   1.083       .  S
C623        C624   1.407       .  A
C623        C628   1.397       .  A
C623        H629   1.083       .  S
C624        C625   1.408       .  A
C625        C626   1.405       .  A
C625        H630   1.083       .  S
C626        C627   1.408       .  A
C626        H631   1.083       .  S
C627        C628   1.406       .  A
C628        H632   1.083       .  S
C633        C634   1.402       .  A
C633        C638   1.393       .  A
C633        H639   1.083       .  S
C634        C635   1.412       .  A
C635        C636   1.403       .  A
C635        H640   1.083       .  S
C636        C637   1.401       .  A
C636        H641   1.083       .  S
C637        C638   1.407       .  A
C638        H642   1.083       .  S
C643        C644   1.412       .  A
C643        C648   1.400       .  A
C643        H649   1.083       .  S
C644        C645   1.406       .  A
C645        C646   1.412       .  A
C645        H650   1.083       .  S
C646        C647   1.415       .  A
C646        H651   1.083       .  S
C647        C648   1.403       .  A
C648        H652   1.083       .  S
C653        C654   1.405       .  A
C653        C658   1.389       .  A
C653        H659   1.084       .  S
C654        C655   1.399       .  A
C655        C656   1.399       .  A
C655        H660   1.083       .  S
C656        C657   1.411       .  A
C656        H661   1.083       .  S
C657        C658   1.401       .  A
C658        H662   1.083       .  S
C663        C664   1.412       .  A
C663        C668   1.415       .  A
C663        H669   1.083       .  S
C664        C665   1.407       .  A
C665        C666   1.398       .  A
C665        H670   1.083       .  S
C666        C667   1.407       .  A
C666        H671   1.083       .  S
C667        C668   1.408       .  A
C668        H672   1.083       .  S
C673        C674   1.411       .  A
C673        C678   1.407       .  A
C673        H679   1.083       .  S
C674        C675   1.406       .  A
C675        C676   1.407       .  A
C675        H680   1.083       .  S
C676        C677   1.412       .  A
C676        H681   1.083       .  S
C677        C678   1.406       .  A
C678        H682   1.083       .  S
C683        C684   1.404       .  A
C683        C688   1.398       .  A
C683        H689   1.084       .  S
C684        C685   1.407       .  A
C685        C686   1.414       .  A
C685        H690   1.083       .  S
C686        C687   1.412       .  A
C686        H691   1.082       .  S
C687        C688   1.410       .  A
C688        H692   1.083       .  S
C693        C694   1.405       .  A
C693        C698   1.396       .  A
C693        H699   1.083       .  S
C694        C695   1.407       .  A
C695        C696   1.403       .  A
C695        H700   1.083       .  S
C696        C697   1.403       .  A
C696        H701   1.083       .  S
C697        C698   1.403       .  A
C698        H702   1.084       .  S
C703        C704   1.410       .  A
C703        C708   1.407       .  A
C703        H709   1.083       .  S
C704        C705   1.402       .  A
C705        C706   1.392       .  A
C705        H710   1.083       .  S
C706        C707   1.404       .  A
C706        H711   1.084       .  S
C707        C708   1.405       .  A
C708        H712   1.083       .  S
C713        C714   1.405       .  A
C713        C718   1.398       .  A
C713        H719   1.084       .  S
C714        C715   1.403       .  A
C715        C716   1.404       .  A
C715        H720   1.083       .  S
C716        C717   1.409       .  A
C716        H721   1.083       .  S
C717        C718   1.405       .  A
C718        H722   1.083       .  S
C723        C724   1.404       .  A
C723        C728   1.390       .  A
C723        H729   1.083       .  S
C724        C725   1.412       .  A
C725        C726   1.412       .  A
C725        H730   1.083       .  S
C726        C727   1.408       .  A
C726        H731   1.083       .  S
C727        C728   1.405       .  A
C728        H732   1.083       .  S
C733        C734   1.407       .  A
C733        C738   1.398       .  A
C733        H739   1.083       .  S
C734        C735   1.403       .  A
C735        C736   1.387       .  A
C735        H740   1.083       .  S
C736        C737   1.404       .  A
C736        H741   1.083       .  S
C737        C738   1.403       .  A
C738        H742   1.083       .  S
C743        C744   1.405       .  A
C743        C748   1.395       .  A
C743        H749   1.083       .  S
C744        C745   1.403       .  A
C745        C746   1.386       .  A
C745        H750   1.083       .  S
C746        C747   1.402       .  A
C746        H751   1.083       .  S
C747        C748   1.403       .  A
C748        H752   1.083       .  S
C753        C754   1.404       .  A
C753        C758   1.390       .  A
C753        H759   1.084       .  S
C754        C755   1.403       .  A
C755        C756   1.407       .  A
C755        H760   1.083       .  S
C756        C757   1.411       .  A
C756        H761   1.083       .  S
C757        C758   1.403       .  A
C758        H762   1.083       .  S
C763        C764   1.405       .  A
C763        C768   1.409       .  A
C763        H769   1.083       .  S
C764        C765   1.411       .  A
C765        C766   1.404       .  A
C765        H770   1.083       .  S
C766        C767   1.405       .  A
C766        H771   1.083       .  S
C767        C768   1.414       .  A
C768        H772   1.083       .  S
C773        C774   1.414       .  A
C773        C778   1.404       .  A
C773        H779   1.083       .  S
C774        C775   1.404       .  A
C775        C776   1.408       .  A
C775        H780   1.083       .  S
C776        C777   1.414       .  A
C776        H781   1.083       .  S
C777        C778   1.403       .  A
C778        H782   1.083       .  S
C783        C784   1.405       .  A
C783        C788   1.400       .  A
C783        H789   1.083       .  S
C784        C785   1.409       .  A
C785        C786   1.402       .  A
C785        H790   1.083       .  S
C786        C787   1.403       .  A
C786        H791   1.083       .  S
C787        C788   1.407       .  A
C788        H792   1.083       .  S
C793        C794   1.404       .  A
C793        C798   1.391       .  A
C793        H799   1.084       .  S
C794        C795   1.404       .  A
C795        C796   1.408       .  A
C795        H800   1.083       .  S
C796        C797   1.412       .  A
C796        H801   1.083       .  S
C797        C798   1.403       .  A
C798        H802   1.083       .  S
C803        C804   1.408       .  A
C803        C808   1.399       .  A
C803        H809   1.083       .  S
C804        C805   1.406       .  A
C805        C806   1.406       .  A
C805        H810   1.083       .  S
C806        C807   1.409       .  A
C806        H811   1.083       .  S
C807        C808   1.404       .  A
C808        H812   1.083       .  S
C813        C814   1.406       .  A
C813        C818   1.407       .  A
C813        H819   1.083       .  S
C814        C815   1.400       .  A
C815        C816   1.392       .  A
C815        H820   1.084       .  S
C816        C817   1.409       .  A
C816        H821   1.083       .  S
C817        C818   1.408       .  A
C818        H822   1.083       .  S
C823        C824   1.408       .  A
C823        C828   1.410       .  A
C823        H829   1.083       .  S
C824        C825   1.406       .  A
C825        C826   1.402       .  A
C825        H830   1.083       .  S
C826        C827   1.408       .  A
C826        H831   1.083       .  S
C827        C828   1.411       .  A
C828        H832   1.083       .  S
C833        C834   1.408       .  A
C833        C838   1.411       .  A
C833        H839   1.083       .  S
C834        C835   1.406       .  A
C835        C836   1.398       .  A
C835        H840   1.083       .  S
C836        C837   1.408       .  A
C836        H841   1.083       .  S
C837        C838   1.410       .  A
C838        H842   1.083       .  S
C843        C844   1.415       .  A
C843        C848   1.421       .  A
C843        H849   1.083       .  S
C844        C845   1.405       .  A
C845        C846   1.394       .  A
C845        H850   1.083       .  S
C846        C847   1.411       .  A
C846        H851   1.083       .  S
C847        C848   1.412       .  A
C848        H852   1.082       .  S
C853        C854   1.399       .  A
C853        C858   1.394       .  A
C853        H859   1.084       .  S
C854        C855   1.404       .  A
C855        C856   1.400       .  A
C855        H860   1.083       .  S
C856        C857   1.405       .  A
C856        H861   1.083       .  S
C857        C858   1.409       .  A
C858        H862   1.083       .  S
C863        C864   1.414       .  A
C863        C868   1.421       .  A
C863        H869   1.083       .  S
C864        C865   1.407       .  A
C865        C866   1.398       .  A
C865        H870   1.083       .  S
C866        C867   1.410       .  A
C866        H871   1.083       .  S
C867        C868   1.413       .  A
C868        H872   1.082       .  S
C873        C874   1.412       .  A
C873        C878   1.390       .  A
C873        H879   1.083       .  S
C874        C875   1.401       .  A
C875        C876   1.401       .  A
C875        H880   1.083       .  S
C876        C877   1.412       .  A
C876        H881   1.083       .  S
C877        C878   1.398       .  A
C878        H882   1.083       .  S
C883        C884   1.409       .  A
C883        C888   1.408       .  A
C883        H889   1.083       .  S
C884        C885   1.405       .  A
C885        C886   1.392       .  A
C885        H890   1.083       .  S
C886        C887   1.405       .  A
C886        H891   1.083       .  S
C887        C888   1.408       .  A
C888        H892   1.083       .  S
C893        C894   1.407       .  A
C893        C898   1.393       .  A
C893        H899   1.083       .  S
C894        C895   1.411       .  A
C895        C896   1.413       .  A
C895        H900   1.083       .  S
C896        C897   1.408       .  A
C896        H901   1.083       .  S
C897        C898   1.403       .  A
C898        H902   1.084       .  S
C903        C904   1.409       .  A
C903        C908   1.404       .  A
C903        H909   1.083       .  S
C904        C905   1.404       .  A
C905        C906   1.392       .  A
C905        H910   1.083       .  S
C906        C907   1.407       .  A
C906        H911   1.083       .  S
C907        C908   1.406       .  A
C908        H912   1.083       .  S
C913        C914   1.409       .  A
C913        C918   1.403       .  A
C913        H919   1.083       .  S
C914        C915   1.405       .  A
C915        C916   1.394       .  A
C915        H920   1.083       .  S
C916        C917   1.405       .  A
C916        H921   1.083       .  S
C917        C918   1.404       .  A
C918        H922   1.083       .  S
C923        C924   1.403       .  A
C923        C928   1.393       .  A
C923        H929   1.083       .  S
C924        C925   1.410       .  A
C925        C926   1.414       .  A
C925        H930   1.083       .  S
C926        C927   1.412       .  A
C926        H931   1.083       .  S
C927        C928   1.407       .  A
C928        H932   1.083       .  S
C933        C934   1.339   1_556  D
C933        H935   1.087       .  S
C934        H936   1.087       .  S
C937        C938   1.338   1_556  D
C937        H939   1.087       .  S
C938        H940   1.087       .  S
C941        C942   1.338   1_556  D
C941        H943   1.086       .  S
C942        H944   1.087       .  S
C945        C946   1.336   1_556  D
C945        H947   1.087       .  S
C946        H948   1.088       .  S
C949        C950   1.346   1_655  D
C949        H951   1.086       .  S
C950        H952   1.087       .  S
C953        C954   1.348   1_455  D
C953        H955   1.086       .  S
C954        H956   1.087       .  S
C957        C958   1.350       .  D
C957        H959   1.086   1_455  S
C958        H960   1.086       .  S
C961        C962   1.352       .  D
C961        H963   1.086       .  S
C962        H964   1.087   1_455  S
C965        C966   1.356       .  D
C965        H967   1.086       .  S
C966        H968   1.086       .  S
C969        C970   1.359       .  D
C969        H971   1.086       .  S
C970        H972   1.086       .  S
C973        C974   1.343       .  D
C973        H975   1.086       .  S
C974        H976   1.087       .  S
C977        C978   1.344       .  D
C977        H979   1.086       .  S
C978        H980   1.087       .  S
C981        C982   1.343       .  D
C981        H983   1.087       .  S
C982        H984   1.087       .  S
C985        C986   1.340       .  D
C985        H987   1.087       .  S
C986        H988   1.087       .  S
C989        C990   1.338       .  D
C989        H991   1.087       .  S
C990        H992   1.087       .  S
C993        C994   1.337       .  D
C993        H995   1.087       .  S
C994        H996   1.087       .  S
C997        C998   1.343       .  D
C997        H999   1.087       .  S
C998       H1000   1.087       .  S
C1001      C1002   1.352       .  D
C1001      H1003   1.086       .  S
C1002      H1004   1.087       .  S
C1005      C1006   1.348       .  D
C1005      H1007   1.087       .  S
C1006      H1008   1.086       .  S
C1009      C1010   1.346       .  D
C1009      H1011   1.086       .  S
C1010      H1012   1.087       .  S
