geometry optimzed in LAMMPS
_audit_creation_date              2020-11-30 
_audit_creation_method            'lammps2cif' 
_symmetry_space_group_name_H-M    'P1' 
_symmetry_Int_Tables_number       1 
_symmetry_cell_setting            triclinic 
loop_ 
_symmetry_equiv_pos_as_xyz 
  x,y,z 
_cell_length_a                    35.15323364 
_cell_length_b                    31.825120148524377 
_cell_length_c                    33.096646674967886 
_cell_angle_alpha                 90.16162380286214 
_cell_angle_beta                  89.9363698317311 
_cell_angle_gamma                 91.42416382257086 
loop_ 
_atom_site_label 
_atom_site_type_symbol 
_atom_site_fract_x 
_atom_site_fract_y 
_atom_site_fract_z 
_atom_site_charge 
O1          O  0.47035031  0.03768583  0.54082097    -0.75000
O2          O  0.46430633  0.94998683  0.46060652    -0.75000
O3          O  0.46684063  0.95247188  0.54279065    -0.75100
O4          O  0.46715451  0.03524559  0.45839352    -0.75100
O5          O  0.53058043  0.03433948  0.45656167    -0.75000
O6          O  0.53029873  0.95234946  0.54088097    -0.75000
O7          O  0.52777676  0.94972941  0.45940881    -0.75000
O8          O  0.53377797  0.03686248  0.53851597    -0.75100
Ni9        Ni  0.46483223  0.99396077  0.50075293     1.25400
Ni10       Ni  0.53279509  0.99331159  0.49870939     1.25400
C11         C  0.50305142  0.05109184  0.55329649     0.87200
C12         C  0.49549940  0.93559032  0.44683511     0.87100
C13         C  0.49860724  0.93904953  0.55583059     0.87200
C14         C  0.49896364  0.04794722  0.44325312     0.87300
O15         O  0.95493978  0.45309817  0.46676585    -0.75000
O16         O  0.02981672  0.54099499  0.46719798    -0.75000
O17         O  0.03235214  0.45659572  0.46593271    -0.75100
O18         O  0.95311589  0.53623117  0.46852626    -0.75100
O19         O  0.95361552  0.53500623  0.53604013    -0.75000
O20         O  0.03320341  0.45593212  0.53341312    -0.75000
O21         O  0.03031855  0.54039170  0.53472565    -0.75000
O22         O  0.95580852  0.45195454  0.53429205    -0.75100
Ni23       Ni  0.99278282  0.49660750  0.46466188     1.25400
Ni24       Ni  0.99353967  0.49561425  0.53706212     1.25400
C25         C  0.94053859  0.44158505  0.50053389     0.87200
C26         C  0.04178057  0.55558100  0.50098667     0.87100
C27         C  0.04625727  0.44385325  0.49932175     0.87200
C28         C  0.93926783  0.54709275  0.50268067     0.87300
O29         O  0.55404639  0.53538902  0.95654516    -0.75000
O30         O  0.47585959  0.53294295  0.03913918    -0.75000
O31         O  0.55345518  0.53623046  0.03898418    -0.75100
O32         O  0.47592483  0.53200345  0.95614643    -0.75100
O33         O  0.47662353  0.46205033  0.95671999    -0.75000
O34         O  0.55468089  0.46627737  0.03920256    -0.75000
O35         O  0.47690317  0.46300925  0.03961410    -0.75000
O36         O  0.55489774  0.46544800  0.95653233    -0.75100
Ni37       Ni  0.51472439  0.53656034  0.99759124     1.25400
Ni38       Ni  0.51575297  0.46174617  0.99795822     1.25400
C39         C  0.56786000  0.50095310  0.94332914     0.87200
C40         C  0.46390849  0.49756622  0.05354879     0.87100
C41         C  0.56682557  0.50196985  0.05283111     0.87200
C42         C  0.46335297  0.49635021  0.94279191     0.87300
O43         O  0.04527065  0.47428662  0.04181439    -0.75000
O44         O  0.04896619  0.55794521  0.95852636    -0.75000
O45         O  0.04650637  0.55907734  0.04101326    -0.75100
O46         O  0.04740867  0.47298041  0.95923335    -0.75100
O47         O  0.98393876  0.47264539  0.95774547    -0.75000
O48         O  0.98302948  0.55805692  0.03903714    -0.75000
O49         O  0.98547028  0.55714233  0.95710317    -0.75000
O50         O  0.98179241  0.47393645  0.03990670    -0.75100
Ni51       Ni  0.04935639  0.51607404  0.00018279     1.25400
Ni52       Ni  0.98134812  0.51541137  0.99831464     1.25400
C53         C  0.01288441  0.46125647  0.05522735     0.87200
C54         C  0.01767482  0.57089610  0.94387782     0.87100
C55         C  0.01444576  0.57178229  0.05419531     0.87200
C56         C  0.01569485  0.45930139  0.94453450     0.87300
O57         O  0.54760515  0.05097049  0.96255399    -0.75000
O58         O  0.48174100  0.95537083  0.96805224    -0.75000
O59         O  0.47093081  0.03837215  0.96395987    -0.75100
O60         O  0.55767740  0.96877011  0.96755085    -0.75100
O61         O  0.55742473  0.97286306  0.03497832    -0.75000
O62         O  0.47060189  0.04152813  0.03140603    -0.75000
O63         O  0.48157418  0.95837098  0.03554182    -0.75000
O64         O  0.54701198  0.05503663  0.03000608    -0.75100
Ni65       Ni  0.51426700  0.00331005  0.96307750     1.25400
Ni66       Ni  0.51397948  0.00722489  0.03542329     1.25400
C67         C  0.56044236  0.06629298  0.99561715     0.87200
C68         C  0.47106617  0.94105363  0.00235730     0.87100
C69         C  0.45616480  0.05065034  0.99722241     0.87200
C70         C  0.57244868  0.96068707  0.00192666     0.87300
O71         O  0.73260558  0.78761625  0.84827321    -0.81400
O72         O  0.78257673  0.67395454  0.71184181    -0.66100
O73         O  0.77830125  0.76826334  0.78293160    -1.12700
C74         C  0.67730988  0.80740687  0.69706859     1.05500
O75         O  0.78301810  0.71860160  0.66063655    -0.79300
O76         O  0.77295603  0.80118101  0.66704279    -0.66900
Ni77       Ni  0.78035270  0.76190513  0.83966585     1.34900
C78         C  0.78030825  0.83005177  0.69258384     0.84200
O79         O  0.82453926  0.69764465  0.77703592    -0.79900
O80         O  0.82805673  0.73554288  0.83455053    -0.90100
C81         C  0.78701033  0.68179750  0.67442771     0.83800
O82         O  0.75452104  0.70891643  0.84527747    -0.68300
O83         O  0.69533863  0.78715186  0.67005674    -0.87600
C84         C  0.73972617  0.68300924  0.82045462     0.84600
C85         C  0.84115741  0.70857288  0.80997898     1.06200
H86         H  0.71552269  0.72572684  0.72875004     0.38000
O87         O  0.73758179  0.74377376  0.72404008    -1.10300
O88         O  0.76580973  0.82956960  0.72798543    -0.66900
Ni89       Ni  0.73370964  0.79083019  0.75920263     1.26300
O90         O  0.74613905  0.68535510  0.78248951    -0.67200
O91         O  0.68867647  0.81112959  0.73357451    -0.79500
C92         C  0.72333743  0.82334553  0.83546657     0.84000
O93         O  0.72954404  0.83430782  0.79911900    -0.66600
Ni94       Ni  0.73951641  0.75298423  0.66750914     1.27400
Ni95       Ni  0.78071452  0.71971159  0.74968395     1.26100
H96         H  0.79989244  0.78616127  0.77588673     0.38500
O97         O  0.28417623  0.65012457  0.77578633    -0.81400
O98         O  0.19052797  0.80682439  0.71627999    -0.66100
O99         O  0.26445708  0.72047791  0.72754826    -1.12700
C100        C  0.31632235  0.81199583  0.82695005     1.05500
O101        O  0.23458137  0.85744487  0.71663564    -0.79300
O102        O  0.30802214  0.83995133  0.72781059    -0.66900
Ni103      Ni  0.24819886  0.66312444  0.73401655     1.34900
C104        C  0.32984757  0.81018907  0.71908139     0.84200
O105        O  0.20289999  0.73590702  0.67742071    -0.79900
O106        O  0.21095204  0.66838134  0.69236882    -0.90100
C107        C  0.20138552  0.84394318  0.70718528     0.83800
O108        O  0.21095534  0.67274301  0.77436702    -0.68300
O109        O  0.29834787  0.84120691  0.80952610    -0.87600
C110        C  0.18654640  0.70129936  0.77707838     0.84600
C111        C  0.19607147  0.69717611  0.67141730     1.06200
H112        H  0.23548335  0.78508697  0.79050836     0.38000
O113        O  0.25164268  0.78779538  0.76696911    -1.10300
O114        O  0.32570758  0.77341014  0.73402356    -0.66900
Ni115      Ni  0.29037169  0.74666249  0.77158251     1.26300
O116        O  0.18945975  0.73583044  0.75777015    -0.67200
O117        O  0.31492443  0.77406081  0.81531388    -0.79500
C118        C  0.31721351  0.66464137  0.78405182     0.84000
O119        O  0.32678921  0.70273638  0.77709319    -0.66600
Ni120      Ni  0.26593720  0.84594970  0.76319579     1.27400
Ni121      Ni  0.22646913  0.76247054  0.72212757     1.26100
H122        H  0.28044683  0.72169337  0.70379023     0.38500
O123        O  0.78451600  0.29710110  0.66028608    -0.81400
O124        O  0.73757190  0.17176414  0.79136299    -0.66100
O125        O  0.73893739  0.26599718  0.72105406    -1.12700
C126        C  0.83544533  0.31715469  0.81078335     1.05500
O127        O  0.73560749  0.21490445  0.84418483    -0.79300
O128        O  0.74318793  0.29881438  0.84115131    -0.66900
Ni129      Ni  0.74179912  0.25931852  0.66411436     1.34900
C130        C  0.73214005  0.32563558  0.81576389     0.84200
O131        O  0.69666285  0.19060321  0.72554139    -0.79900
O132        O  0.69889818  0.22122621  0.66430017    -0.90100
C133        C  0.73019760  0.17890372  0.82823043     0.83800
O134        O  0.77609273  0.21410290  0.66151124    -0.68300
O135        O  0.82088590  0.29184099  0.83666332    -0.87600
C136        C  0.78717710  0.18704064  0.68649727     0.84600
C137        C  0.68414627  0.19547071  0.68958851     1.06200
H138        H  0.80316692  0.23170612  0.77537208     0.38000
O139        O  0.77993315  0.24634176  0.78090007    -1.10300
O140        O  0.74422614  0.32612476  0.77943432    -0.66900
Ni141      Ni  0.78023622  0.29502442  0.74766896     1.26300
O142        O  0.77494870  0.18589476  0.72281438    -0.67200
O143        O  0.82235761  0.32186152  0.77517505    -0.79500
C144        C  0.78433727  0.33435394  0.67371820     0.84000
O145        O  0.77972662  0.34134119  0.71104284    -0.66600
Ni146      Ni  0.77790412  0.25347519  0.83800536     1.27400
Ni147      Ni  0.73853960  0.21741954  0.75409795     1.26100
H148        H  0.71572150  0.28061048  0.72641641     0.38500
O149        O  0.30936573  0.20117238  0.67322298    -0.81400
O150        O  0.17663208  0.27833286  0.76804723    -0.66100
O151        O  0.27053416  0.26481479  0.71291136    -1.12700
C152        C  0.30253360  0.19385530  0.83353987     1.05500
O153        O  0.20849924  0.30088093  0.82165344    -0.79300
O154        O  0.28339278  0.29356441  0.83630977    -0.66900
Ni155      Ni  0.27366667  0.24393913  0.65947293     1.34900
C156        C  0.30915776  0.30460183  0.81140166     0.84200
O157        O  0.20224934  0.30301993  0.69525827    -0.79900
O158        O  0.23895792  0.28565573  0.64207312    -0.90100
C159        C  0.17813015  0.29942326  0.80070628     0.83800
O160        O  0.23327028  0.20286250  0.66126293    -0.68300
O161        O  0.27298749  0.20974990  0.84930162    -0.87600
C162        C  0.20481970  0.19659977  0.68428794     0.84600
C163        C  0.21220156  0.30629184  0.65827381     1.06200
H164        H  0.23329241  0.20929366  0.77836847     0.38000
O165        O  0.24473895  0.23719734  0.77933530    -1.10300
O166        O  0.31426237  0.28584586  0.77774387    -0.66900
Ni167      Ni  0.29341068  0.23374673  0.75489373     1.26300
O168        O  0.19827374  0.21947391  0.71520570    -0.67200
O169        O  0.31473385  0.20216937  0.79809737    -0.79500
C170        C  0.33984414  0.20697888  0.69344041     0.84000
O171        O  0.33987129  0.22831924  0.72590750    -0.66600
Ni172      Ni  0.24105740  0.25476719  0.83382504     1.27400
Ni173      Ni  0.22238380  0.27007795  0.73813104     1.26100
H174        H  0.28228487  0.29257543  0.71227073     0.38500
O175        O  0.78564482  0.72057388  0.34415039    -0.81400
O176        O  0.72839768  0.83442925  0.21127265    -0.66100
O177        O  0.73640859  0.74193337  0.28300890    -1.12700
C178        C  0.83294336  0.69689399  0.19392989     1.05500
O179        O  0.73397503  0.79471282  0.15622104    -0.79300
O180        O  0.73720819  0.71162337  0.16581355    -0.66900
Ni181      Ni  0.73944789  0.75053980  0.33970497     1.34900
C182        C  0.72865871  0.68306924  0.19117758     0.84200
O183        O  0.68876466  0.81012026  0.27702270    -0.79900
O184        O  0.69323076  0.78073392  0.33863582    -0.90100
C185        C  0.72537538  0.82887367  0.17345821     0.83800
O186        O  0.76895442  0.80150501  0.34133321    -0.68300
O187        O  0.81571743  0.71809479  0.16737947    -0.87600
C188        C  0.77794136  0.82899501  0.31517458     0.84600
C189        C  0.67618507  0.80319884  0.31275807     1.06200
H190        H  0.79790454  0.78345478  0.22740258     0.38000
O191        O  0.77579266  0.76560693  0.22230787    -1.10300
O192        O  0.74437071  0.68154139  0.22593466    -0.66900
Ni193      Ni  0.77904404  0.71776288  0.25702525     1.26300
O194        O  0.76611053  0.82649260  0.27893184    -0.67200
O195        O  0.82243318  0.69512139  0.23065382    -0.79500
C196        C  0.78903496  0.68308227  0.33207208     0.84000
O197        O  0.78209038  0.67321573  0.29561696    -0.66600
Ni198      Ni  0.77427053  0.75629919  0.16529748     1.27400
Ni199      Ni  0.73238310  0.78917553  0.24871428     1.26100
H200        H  0.71419766  0.72404894  0.27845341     0.38500
O201        O  0.23235855  0.85143848  0.28571487    -0.81400
O202        O  0.32504447  0.70161048  0.22287593    -0.66100
O203        O  0.24910258  0.78573730  0.23185770    -1.12700
C204        C  0.19716203  0.69186322  0.32834852     1.05500
O205        O  0.27988950  0.65230359  0.21691924    -0.79300
O206        O  0.20535076  0.66591011  0.23015849    -0.66900
Ni207      Ni  0.26172497  0.84379553  0.23700899     1.34900
C208        C  0.18310157  0.69530133  0.22156636     0.84200
O209        O  0.31476476  0.77526091  0.18649117    -0.79900
O210        O  0.29223810  0.84091244  0.18916034    -0.90100
C211        C  0.31405005  0.66511946  0.21122019     0.83800
O212        O  0.30607687  0.83957106  0.26929297    -0.68300
O213        O  0.21660718  0.66351083  0.31112834    -0.87600
C214        C  0.32710740  0.80982947  0.27987261     0.84600
C215        C  0.31373318  0.81309492  0.17423951     1.06200
H216        H  0.27599770  0.72057932  0.29448299     0.38000
O217        O  0.26110068  0.71843676  0.27006160    -1.10300
O218        O  0.18733185  0.73246076  0.23592364    -0.66900
Ni219      Ni  0.22202696  0.75889173  0.27456748     1.26300
O220        O  0.32188340  0.77211208  0.26751138    -0.67200
O221        O  0.19665554  0.72993918  0.31696480    -0.79500
C222        C  0.19803960  0.83976885  0.29228064     0.84000
O223        O  0.18610758  0.80357859  0.28063722    -0.66600
Ni224      Ni  0.24844512  0.66051529  0.26422286     1.27400
Ni225      Ni  0.28850800  0.74569676  0.22794179     1.26100
H226        H  0.23408000  0.78307287  0.20747138     0.38500
O227        O  0.73240358  0.22269015  0.15171555    -0.81400
O228        O  0.77323042  0.34206671  0.29215055    -0.66100
O229        O  0.77449648  0.24941162  0.21875726    -1.12700
C230        C  0.67487371  0.19722749  0.30348034     1.05500
O231        O  0.77619320  0.29576794  0.34139749    -0.79300
O232        O  0.76835377  0.21289030  0.33443019    -0.66900
Ni233      Ni  0.77608083  0.25792451  0.16193858     1.34900
C234        C  0.77772661  0.18566212  0.30849041     0.84200
O235        O  0.81730843  0.32489784  0.22822190    -0.79900
O236        O  0.82017023  0.29358161  0.16739586    -0.90100
C237        C  0.77772459  0.33348533  0.32922783     0.83800
O238        O  0.74388860  0.30513369  0.15814348    -0.68300
O239        O  0.69095918  0.21957697  0.33094091    -0.87600
C240        C  0.73002294  0.32994864  0.18390891     0.84600
C241        C  0.83292194  0.31945848  0.19384200     1.06200
H242        H  0.70910941  0.28345988  0.27300527     0.38000
O243        O  0.73192408  0.26788604  0.27779707    -1.10300
O244        O  0.76462529  0.18583248  0.27264685    -0.66900
Ni245      Ni  0.73100169  0.22122212  0.24208718     1.26300
O246        O  0.73910915  0.32881714  0.22123297    -0.67200
O247        O  0.68705939  0.19515372  0.26717174    -0.79500
C248        C  0.72393065  0.18683983  0.16616206     0.84000
O249        O  0.72981182  0.17761858  0.20272674    -0.66600
Ni250      Ni  0.73373114  0.25790196  0.33419083     1.27400
Ni251      Ni  0.77423896  0.29716261  0.25353981     1.26100
H252        H  0.79692987  0.23386232  0.22527025     0.38500
O253        O  0.95400889  0.97749860  0.45676266    -0.75000
O254        O  0.03342225  0.97584706  0.53790985    -0.75000
O255        O  0.95572963  0.97514321  0.53928802    -0.75100
O256        O  0.03200938  0.97758716  0.45487031    -0.75100
O257        O  0.03334647  0.04757542  0.45611528    -0.75000
O258        O  0.95698860  0.04515640  0.54056029    -0.75000
O259        O  0.03453153  0.04584036  0.53903075    -0.75000
O260        O  0.95532759  0.04749701  0.45796682    -0.75100
Ni261      Ni  0.99379293  0.97408414  0.49706086     1.25400
Ni262      Ni  0.99513506  0.04895804  0.49842866     1.25400
C263        C  0.94129614  0.01268933  0.44423818     0.87200
C264        C  0.04667380  0.01075665  0.55235756     0.87100
C265        C  0.94387513  0.00979547  0.55397846     0.87200
C266        C  0.04533203  0.01284696  0.44151633     0.87300
C267        C  0.11646346  0.97674500  0.36554268     0.79700
N268        N  0.08851324  0.97642637  0.39418910    -0.78600
C269        C  0.07510795  0.01331649  0.40919659     0.82100
N270        N  0.09033528  0.05056182  0.39540945    -0.78600
C271        C  0.11831190  0.05124126  0.36669346     0.82200
N272        N  0.13099711  0.01416179  0.35205793    -0.80300
O273        O  0.20369555  0.30369455  0.17288477    -0.81400
O274        O  0.33795300  0.22820939  0.26542553    -0.66100
O275        O  0.24262683  0.24031651  0.21248304    -1.12700
C276        C  0.21188231  0.31026025  0.33488721     1.05500
O277        O  0.30642381  0.20370572  0.31825893    -0.79300
O278        O  0.23169377  0.20915572  0.33417120    -0.66900
Ni279      Ni  0.23843596  0.25988995  0.15877440     1.34900
C280        C  0.20439662  0.19972223  0.31052620     0.84200
O281        O  0.31152585  0.20333728  0.19294870    -0.79900
O282        O  0.27224945  0.21719541  0.14091655    -0.90100
C283        C  0.33701330  0.20669114  0.29776345     0.83800
O284        O  0.27949613  0.30036513  0.15837831    -0.68300
O285        O  0.24074211  0.29245095  0.34989864    -0.87600
C286        C  0.30804713  0.30787504  0.18092441     0.84600
C287        C  0.30062653  0.19879578  0.15640693     1.06200
H288        H  0.28074616  0.29577589  0.27821378     0.38000
O289        O  0.26921344  0.26786459  0.27859470    -1.10300
O290        O  0.19840414  0.22003265  0.27792867    -0.66900
Ni291      Ni  0.22026215  0.27187790  0.25496552     1.26300
O292        O  0.31435986  0.28680748  0.21302567    -0.67200
O293        O  0.19990043  0.30388406  0.29890269    -0.79500
C294        C  0.17351999  0.29986435  0.19411323     0.84000
O295        O  0.17352462  0.27850145  0.22650413    -0.66600
Ni296      Ni  0.27337021  0.24875594  0.33240576     1.27400
Ni297      Ni  0.29145298  0.23575413  0.23646867     1.26100
H298        H  0.23107551  0.21246375  0.21248235     0.38500
C299        C  0.97405919  0.39365054  0.13659336     0.79700
N300        N  0.97679793  0.42146881  0.10574466    -0.78600
C301        C  0.01097715  0.43183823  0.08920616     0.82100
N302        N  0.04292160  0.41447974  0.10396734    -0.78600
C303        C  0.04079539  0.38639740  0.13482138     0.82200
N304        N  0.00621511  0.37630039  0.15117532    -0.80300
C305        C  0.37107790  0.10648714  0.03046017     0.79700
N306        N  0.40449998  0.08619368  0.03135295    -0.78600
C307        C  0.42136882  0.07444398  0.99629424     0.82100
N308        N  0.40537976  0.08405642  0.96035195    -0.78600
C309        C  0.37202464  0.10433333  0.95941595     0.82200
N310        N  0.35506780  0.11576324  0.99444678    -0.80300
C311        C  0.53550444  0.12012747  0.36411095     0.79700
N312        N  0.53367027  0.09176447  0.39456986    -0.78600
C313        C  0.49969389  0.07839587  0.40985304     0.82100
N314        N  0.46697762  0.09333573  0.39409892    -0.78600
C315        C  0.46823189  0.12177245  0.36339252     0.82200
N316        N  0.50264377  0.13482180  0.34869266    -0.80300
C317        C  0.86559264  0.97469727  0.37313634     0.79700
N318        N  0.89414007  0.97543735  0.40094255    -0.78600
C319        C  0.90996120  0.01273485  0.41379506     0.82100
N320        N  0.89639901  0.04955947  0.39879238    -0.78600
C321        C  0.86779085  0.04882432  0.37074953     0.82200
N322        N  0.85305194  0.01133779  0.35820867    -0.80300
C323        C  0.65173623  0.11117279  0.96108889     0.79700
N324        N  0.61530640  0.09597430  0.96010907    -0.78600
C325        C  0.59501357  0.09186273  0.99484547     0.82100
N326        N  0.61127014  0.10230080  0.03049818    -0.78600
C327        C  0.64721621  0.11786779  0.03190905     0.82200
N328        N  0.66741562  0.12222995  0.99716184    -0.80300
C329        C  0.63567555  0.54385439  0.12969085     0.79700
N330        N  0.60860545  0.54185697  0.10022418    -0.78600
C331        C  0.59645646  0.50382808  0.08499425     0.82100
N332        N  0.61186134  0.46773762  0.09949433    -0.78600
C333        C  0.63877461  0.46964253  0.12926299     0.82200
N334        N  0.65034156  0.50773335  0.14340673    -0.80300
C335        C  0.84559377  0.41287784  0.53731268     0.79700
N336        N  0.88355289  0.42039704  0.53629801    -0.78600
C337        C  0.90244859  0.42310583  0.50081762     0.82100
N338        N  0.88312259  0.41860540  0.46567768    -0.78600
C339        C  0.84507772  0.41091758  0.46566168     0.82200
N340        N  0.82656923  0.40792604  0.50174638    -0.80300
C341        C  0.39820582  0.53203205  0.13577600     0.79700
N342        N  0.38475094  0.49434554  0.14954546    -0.78600
C343        C  0.39612250  0.45762580  0.13293621     0.82100
N344        N  0.42131964  0.45898993  0.10144825    -0.78600
C345        C  0.43536024  0.49656224  0.08713109     0.82200
N346        N  0.42328250  0.53309291  0.10423081    -0.80300
C347        C  0.97703984  0.63401650  0.13918841     0.79700
N348        N  0.00964705  0.65159836  0.15447346    -0.78600
C349        C  0.04407017  0.64376168  0.13753385     0.82100
N350        N  0.04553480  0.61803488  0.10462256    -0.78600
C351        C  0.01310771  0.60110918  0.08848467     0.82200
N352        N  0.97912213  0.60915001  0.10591534    -0.80300
C353        C  0.40311036  0.86090410  0.96688444     0.79700
N354        N  0.43049575  0.89125460  0.96735144    -0.78600
C355        C  0.44515665  0.90511109  0.00280967     0.82100
N356        N  0.43241516  0.88852383  0.03810708    -0.78600
C357        C  0.40551802  0.85720934  0.03765779     0.82200
N358        N  0.39062870  0.84405847  0.00201158    -0.80300
C359        C  0.53160532  0.86018095  0.37271444     0.79700
N360        N  0.52951670  0.88920744  0.40239739    -0.78600
C361        C  0.49554005  0.90278061  0.41563940     0.82100
N362        N  0.46291371  0.88721708  0.39863295    -0.78600
C363        C  0.46442688  0.85795068  0.36842867     0.82200
N364        N  0.49899948  0.84512173  0.35550160    -0.80300
C365        C  0.10870651  0.63749161  0.53669656     0.79700
N366        N  0.08182973  0.60640953  0.53651552    -0.78600
C367        C  0.06926484  0.59018149  0.50103288     0.82100
N368        N  0.08366780  0.60490908  0.46571056    -0.78600
C369        C  0.11078341  0.63583250  0.46583879     0.82200
N370        N  0.12310042  0.65208407  0.50142485    -0.80300
C371        C  0.65917643  0.90757433  0.97032625     0.79700
N372        N  0.62514974  0.92643081  0.96899632    -0.78600
C373        C  0.60809277  0.93864065  0.00357723     0.82100
N374        N  0.62479041  0.93139454  0.03968899    -0.78600
C375        C  0.65846698  0.91170470  0.04151846     0.82200
N376        N  0.67570587  0.89987696  0.00657305    -0.80300
C377        C  0.12789583  0.38295310  0.53323984     0.79700
N378        N  0.09541037  0.40497797  0.53385253    -0.78600
C379        C  0.07894955  0.41656545  0.49857257     0.82100
N380        N  0.09508908  0.40618059  0.46267689    -0.78600
C381        C  0.12759136  0.38418044  0.46208441     0.82200
N382        N  0.14390980  0.37305869  0.49736543    -0.80300
C383        C  0.98027077  0.38775027  0.86378977     0.79700
N384        N  0.98152735  0.41542865  0.89512704    -0.78600
C385        C  0.01528060  0.42854039  0.91129203     0.82100
N386        N  0.04824700  0.41378141  0.89594011    -0.78600
C387        C  0.04747772  0.38571194  0.86485571     0.82200
N388        N  0.01341551  0.37297385  0.84912077    -0.80300
C389        C  0.11695353  0.97548908  0.62961945     0.79700
N390        N  0.08989061  0.97440180  0.59997955    -0.78600
C391        C  0.07605382  0.01105539  0.58499348     0.82100
N392        N  0.08991196  0.04853731  0.59975851    -0.78600
C393        C  0.11695216  0.04988313  0.62929459     0.82200
N394        N  0.13001541  0.01318787  0.64395791    -0.80300
C395        C  0.54129911  0.12245078  0.63325891     0.79700
N396        N  0.53954910  0.09441259  0.60208762    -0.78600
C397        C  0.50535271  0.08256700  0.58580281     0.82100
N398        N  0.47296219  0.09899759  0.60062413    -0.78600
C399        C  0.47427051  0.12700917  0.63154995     0.82200
N400        N  0.50854574  0.13869638  0.64731925    -0.80300
C401        C  0.39437003  0.53008121  0.86410431     0.79700
N402        N  0.42120245  0.53125145  0.89383704    -0.78600
C403        C  0.43336595  0.49488647  0.91083041     0.82100
N404        N  0.41810165  0.45724746  0.89786155    -0.78600
C405        C  0.39100431  0.45558110  0.86826504     0.82200
N406        N  0.37978707  0.49230037  0.85172228    -0.80300
C407        C  0.87262590  0.97255544  0.63134853     0.79700
N408        N  0.89956491  0.97235519  0.60143770    -0.78600
C409        C  0.91484712  0.00935904  0.58683920     0.82100
N410        N  0.90294318  0.04652415  0.60241943    -0.78600
C411        C  0.87667801  0.04695830  0.63263326     0.82200
N412        N  0.86160324  0.01010061  0.64622604    -0.80300
C413        C  0.98353577  0.64381984  0.86664263     0.79700
N414        N  0.98450823  0.61528797  0.89677041    -0.78600
C415        C  0.01803630  0.60175159  0.91110063     0.82100
N416        N  0.05113954  0.61661329  0.89469409    -0.78600
C417        C  0.05085005  0.64507940  0.86405091     0.82200
N418        N  0.01668988  0.65834585  0.85019844    -0.80300
C419        C  0.53515902  0.86940964  0.63503337     0.79700
N420        N  0.50239642  0.85209129  0.65000985    -0.78600
C421        C  0.46798533  0.86198510  0.63444528     0.82100
N422        N  0.46670613  0.89041039  0.60371855    -0.78600
C423        C  0.49931311  0.90822102  0.58876154     0.82200
N424        N  0.53322981  0.89768629  0.60466221    -0.80300
C425        C  0.64429124  0.54249656  0.87459725     0.79700
N426        N  0.61518146  0.54059971  0.90181515    -0.78600
C427        C  0.59951670  0.50260134  0.91303879     0.82100
N428        N  0.61396497  0.46646727  0.89715517    -0.78600
C429        C  0.64316500  0.46833306  0.86972216     0.82200
N430        N  0.65799054  0.50646056  0.85928074    -0.80300
C431        C  0.85415245  0.60060641  0.53959179     0.79700
N432        N  0.88745389  0.58004097  0.53896331    -0.78600
C433        C  0.90488990  0.57156942  0.50341515     0.82100
N434        N  0.88864538  0.58285593  0.46817694    -0.78600
C435        C  0.85540525  0.60331689  0.46793997     0.82200
N436        N  0.83833121  0.61208254  0.50385589    -0.80300
C437        C  0.15016085  0.33482361  0.36102852    -0.20800
C438        C  0.19012441  0.33771476  0.36194973    -0.07400
C439        C  0.20834654  0.36278993  0.39192066     0.13500
C440        C  0.18645071  0.38018151  0.42267497    -0.20900
C441        C  0.14692276  0.37366041  0.42405881    -0.07400
C442        C  0.12821161  0.35268666  0.39180275     0.13400
C443        C  0.08557584  0.34670085  0.39101609    -0.24200
H444        H  0.13616643  0.31603332  0.33781133     0.14700
H445        H  0.20049371  0.39749445  0.44693011     0.14800
C446        C  0.25078763  0.37125696  0.39205167    -0.24200
H447        H  0.07591655  0.32854496  0.36404082     0.05000
H448        H  0.07197156  0.37778546  0.39004006     0.08200
H449        H  0.07584425  0.32940442  0.41837392     0.08200
H450        H  0.25998622  0.38360471  0.36216113     0.08200
H451        H  0.26621984  0.34222579  0.39907734     0.08200
H452        H  0.25919565  0.39496974  0.41528190     0.05000
C453        C  0.34819975  0.37165921  0.19835615    -0.20800
C454        C  0.33456893  0.34335237  0.16884360    -0.07400
C455        C  0.34516817  0.35061803  0.12789913     0.13500
C456        C  0.36707326  0.38678659  0.11760153    -0.20900
C457        C  0.37809005  0.41685687  0.14672543    -0.07400
C458        C  0.36931647  0.40840256  0.18790054     0.13400
C459        C  0.38236817  0.43767893  0.22124376    -0.24200
H460        H  0.34084376  0.36596644  0.22970942     0.14700
H461        H  0.37408970  0.39259150  0.08617399     0.14800
C462        C  0.33371721  0.32034630  0.09465321    -0.24200
H463        H  0.37605300  0.42434540  0.25156497     0.05000
H464        H  0.36746312  0.46788412  0.21916856     0.08200
H465        H  0.41359538  0.44338518  0.21910439     0.08200
H466        H  0.30246169  0.32034493  0.09018072     0.08200
H467        H  0.34267186  0.28819198  0.10241022     0.08200
H468        H  0.34714131  0.32905003  0.06534549     0.05000
C469        C  0.36876957  0.16604022  0.35155625    -0.20800
C470        C  0.37068103  0.18325571  0.31237548    -0.07400
C471        C  0.40388623  0.17684615  0.28907197     0.13500
C472        C  0.43448732  0.15562556  0.30636557    -0.20900
C473        C  0.43299703  0.13983877  0.34610459    -0.07400
C474        C  0.39900749  0.14424365  0.36856116     0.13400
C475        C  0.39423138  0.12733405  0.41086435    -0.24200
H476        H  0.34337983  0.17002854  0.36960647     0.14700
H477        H  0.46002194  0.15149746  0.28855785     0.14800
C478        C  0.40748480  0.19152305  0.24592246    -0.24200
H479        H  0.39593931  0.09255527  0.41051368     0.05000
H480        H  0.36616727  0.13504625  0.42403493     0.08200
H481        H  0.41653568  0.14117160  0.43093273     0.08200
H482        H  0.40646088  0.22631240  0.24460869     0.08200
H483        H  0.38412738  0.17728022  0.22748415     0.08200
H484        H  0.43481829  0.18220336  0.23206835     0.05000
C485        C  0.37639450  0.15520147  0.08807077    -0.20800
C486        C  0.35507797  0.12402761  0.06765357    -0.07400
C487        C  0.31763828  0.11401334  0.08028892     0.13500
C488        C  0.30138473  0.13757785  0.11131323    -0.20900
C489        C  0.32173776  0.17080421  0.12979381    -0.07400
C490        C  0.36008300  0.17921302  0.11878588     0.13400
C491        C  0.38391563  0.21473945  0.13655674    -0.24200
H492        H  0.40519096  0.16274296  0.07818959     0.14700
H493        H  0.27213641  0.13107964  0.12023813     0.14800
C494        C  0.29475488  0.07877830  0.06100393    -0.24200
H495        H  0.40937262  0.20179095  0.15139231     0.05000
H496        H  0.36858432  0.23367361  0.15912247     0.08200
H497        H  0.39355160  0.23626606  0.11204506     0.08200
H498        H  0.31046488  0.04903641  0.06322423     0.08200
H499        H  0.28952679  0.08609513  0.02889046     0.08200
H500        H  0.26667157  0.07399897  0.07594384     0.05000
C501        C  0.07730284  0.35416124  0.19062163    -0.20800
C502        C  0.07546800  0.36548080  0.14965741    -0.07400
C503        C  0.10587805  0.35487513  0.12371303     0.13500
C504        C  0.13689459  0.33343333  0.13945549    -0.20900
C505        C  0.13886769  0.32197663  0.18041554    -0.07400
C506        C  0.10853195  0.33282871  0.20643105     0.13400
C507        C  0.10901399  0.32330048  0.25099397    -0.24200
H508        H  0.05416747  0.36239481  0.21058750     0.14700
H509        H  0.15979256  0.32516431  0.11920950     0.14800
C510        C  0.10563049  0.36444277  0.07905553    -0.24200
H511        H  0.08373624  0.33571596  0.26678304     0.05000
H512        H  0.13470069  0.33817812  0.26495154     0.08200
H513        H  0.10887363  0.28881565  0.25586851     0.08200
H514        H  0.10703890  0.39892228  0.07417760     0.08200
H515        H  0.07950292  0.35069420  0.06493843     0.08200
H516        H  0.13046658  0.35108670  0.06322056     0.05000
C517        C  0.14534707  0.09627454  0.31094177    -0.20800
C518        C  0.13674775  0.09161747  0.35234527    -0.07400
C519        C  0.14897517  0.12389800  0.37925087     0.13500
C520        C  0.16989895  0.15897208  0.36432529    -0.20900
C521        C  0.17875203  0.16354186  0.32298560    -0.07400
C522        C  0.16567605  0.13185461  0.29591438     0.13400
C523        C  0.17444695  0.13443521  0.25143222    -0.24200
H524        H  0.13636349  0.07159970  0.29015952     0.14700
H525        H  0.17986712  0.18298771  0.38534746     0.14800
C526        C  0.14171214  0.12078501  0.42405933    -0.24200
H527        H  0.16338684  0.10632955  0.23483396     0.05000
H528        H  0.20571666  0.13667985  0.24675291     0.08200
H529        H  0.16099910  0.16245811  0.23828241     0.08200
H530        H  0.15381672  0.09142014  0.43601911     0.08200
H531        H  0.11066219  0.12092415  0.43009493     0.08200
H532        H  0.15494075  0.14765452  0.44083222     0.05000
C533        C  0.82292902  0.38784958  0.35462438    -0.20800
C534        C  0.78834159  0.36578796  0.35910700    -0.07400
C535        C  0.76881327  0.36731839  0.39626581     0.13500
C536        C  0.78697426  0.38541778  0.42981877    -0.20900
C537        C  0.82433374  0.40205922  0.42716218    -0.07400
C538        C  0.84123651  0.40645863  0.38815370     0.13400
C539        C  0.87862689  0.42958650  0.38106894    -0.24200
H540        H  0.83713800  0.38754316  0.32556983     0.14700
H541        H  0.77254678  0.38403711  0.45873650     0.14800
C542        C  0.72911399  0.34877691  0.40080264    -0.24200
H543        H  0.88477542  0.43333872  0.34832308     0.05000
H544        H  0.90242909  0.41189977  0.39413816     0.08200
H545        H  0.87768773  0.46156376  0.39451062     0.08200
H546        H  0.72896287  0.31431366  0.39580002     0.08200
H547        H  0.70998312  0.36344339  0.37851228     0.08200
H548        H  0.71739082  0.35447002  0.43145812     0.05000
C549        C  0.66241462  0.39641577  0.11976465    -0.20800
C550        C  0.65772937  0.43137683  0.14514044    -0.07400
C551        C  0.67369098  0.43024109  0.18461556     0.13500
C552        C  0.69588862  0.39630453  0.19613339    -0.20900
C553        C  0.70299703  0.36271226  0.16991817    -0.07400
C554        C  0.68468018  0.36214679  0.13147360     0.13400
C555        C  0.68794675  0.32577869  0.10243815    -0.24200
H556        H  0.64974595  0.39654210  0.08992725     0.14700
H557        H  0.70884165  0.39687039  0.22583028     0.14800
C558        C  0.66778797  0.46444792  0.21549480    -0.24200
H559        H  0.66973279  0.32965692  0.07536024     0.05000
H560        H  0.67870539  0.29609684  0.11750914     0.08200
H561        H  0.71770565  0.32342092  0.09163013     0.08200
H562        H  0.63709833  0.47155502  0.21782574     0.08200
H563        H  0.68469934  0.49296417  0.20713439     0.08200
H564        H  0.67748219  0.45512016  0.24604314     0.05000
C565        C  0.70345079  0.12012325  0.07621294    -0.20800
C566        C  0.66474765  0.12840636  0.07100492    -0.07400
C567        C  0.64441274  0.14864201  0.10220665     0.13500
C568        C  0.66424077  0.16298530  0.13632022    -0.20900
C569        C  0.70346114  0.15785707  0.13961007    -0.07400
C570        C  0.72320428  0.13515488  0.11010097     0.13400
C571        C  0.76543688  0.12896365  0.11336868    -0.24200
H572        H  0.71866374  0.10349987  0.05284943     0.14700
H573        H  0.64975259  0.18147719  0.15890254     0.14800
C574        C  0.60272160  0.15827007  0.09870357    -0.24200
H575        H  0.77637742  0.11013593  0.08774320     0.05000
H576        H  0.77176556  0.11223212  0.14188318     0.08200
H577        H  0.78074779  0.15990015  0.11336141     0.08200
H578        H  0.58546593  0.12861337  0.09780100     0.08200
H579        H  0.59768343  0.17685384  0.07095589     0.08200
H580        H  0.59257650  0.17682926  0.12489385     0.05000
C581        C  0.81750754  0.15336218  0.36231943    -0.20800
C582        C  0.80450173  0.15221637  0.32190429    -0.07400
C583        C  0.81622143  0.11850679  0.29690790     0.13500
C584        C  0.83919177  0.08714174  0.31331313    -0.20900
C585        C  0.85056313  0.08755489  0.35411788    -0.07400
C586        C  0.83969638  0.12143975  0.37878338     0.13400
C587        C  0.84916818  0.12287861  0.42316049    -0.24200
H588        H  0.80913563  0.17875074  0.38201509     0.14700
H589        H  0.84725979  0.06098070  0.29435399     0.14800
C590        C  0.80409160  0.11413926  0.25333201    -0.24200
H591        H  0.83698491  0.15067195  0.43833443     0.05000
H592        H  0.88048176  0.12469487  0.42726673     0.08200
H593        H  0.83737149  0.09429510  0.43828695     0.08200
H594        H  0.81400563  0.14208658  0.23589655     0.08200
H595        H  0.77264253  0.11058804  0.25145236     0.08200
H596        H  0.81627253  0.08602969  0.23870609     0.05000
C597        C  0.57405916  0.15079546  0.30791972    -0.20800
C598        C  0.57274484  0.13570017  0.34787433    -0.07400
C599        C  0.60639801  0.13787048  0.37151699     0.13500
C600        C  0.63953347  0.15621978  0.35501200    -0.20900
C601        C  0.64036989  0.17274971  0.31574062    -0.07400
C602        C  0.60736889  0.16916433  0.29150528     0.13400
C603        C  0.60644099  0.18613953  0.24906761    -0.24200
H604        H  0.54862010  0.14880844  0.28947027     0.14700
H605        H  0.66500317  0.15863486  0.37341422     0.14800
C606        C  0.60775760  0.12292791  0.41472707    -0.24200
H607        H  0.57782381  0.18208339  0.23517996     0.05000
H608        H  0.62689321  0.16910564  0.22987840     0.08200
H609        H  0.61396207  0.22023139  0.24923297     0.08200
H610        H  0.60256382  0.08842236  0.41594553     0.08200
H611        H  0.58618277  0.13930392  0.43308767     0.08200
H612        H  0.63596485  0.12944925  0.42882213     0.05000
C613        C  0.87089780  0.35575557  0.14160664    -0.20800
C614        C  0.86739768  0.34431293  0.18235764    -0.07400
C615        C  0.89798402  0.35312005  0.20903227     0.13500
C616        C  0.93216516  0.37045790  0.19345543    -0.20900
C617        C  0.93620701  0.37986843  0.15213725    -0.07400
C618        C  0.90464537  0.37331972  0.12605727     0.13400
C619        C  0.90646767  0.38237229  0.08132228    -0.24200
H620        H  0.84714957  0.34973918  0.12133601     0.14700
H621        H  0.95612247  0.37603905  0.21352481     0.14800
C622        C  0.89541694  0.34286604  0.25336436    -0.24200
H623        H  0.87981742  0.37249931  0.06555979     0.05000
H624        H  0.93012816  0.36502508  0.06728548     0.08200
H625        H  0.91053494  0.41663422  0.07623295     0.08200
H626        H  0.88923365  0.30876188  0.25743567     0.08200
H627        H  0.87250844  0.36121447  0.26751836     0.08200
H628        H  0.92235729  0.35088691  0.26945211     0.05000
C629        C  0.15959756  0.63737466  0.36406753    -0.20800
C630        C  0.17320299  0.67919351  0.36284049    -0.07400
C631        C  0.16401508  0.70719821  0.39449813     0.13500
C632        C  0.14187698  0.69221793  0.42664220    -0.20900
C633        C  0.12916224  0.65014493  0.42834820    -0.07400
C634        C  0.13796548  0.62227203  0.39653755     0.13400
C635        C  0.12656901  0.57623725  0.39721136    -0.24200
H636        H  0.16632508  0.61608797  0.33959202     0.14700
H637        H  0.13511293  0.71337982  0.45121673     0.14800
C638        C  0.17856303  0.75224513  0.39591886    -0.24200
H639        H  0.13801208  0.55904436  0.37077741     0.05000
H640        H  0.09511804  0.57251320  0.39627373     0.08200
H641        H  0.13780176  0.56131175  0.42489069     0.08200
H642        H  0.16610115  0.77048366  0.37088224     0.08200
H643        H  0.21009864  0.75328918  0.39370973     0.08200
H644        H  0.17067824  0.76811072  0.42455868     0.05000
C645        C  0.39262349  0.79523553  0.30322056    -0.20800
C646        C  0.36044365  0.82029269  0.30613609    -0.07400
C647        C  0.36191732  0.85595738  0.33203263     0.13500
C648        C  0.39583423  0.86634118  0.35249546    -0.20900
C649        C  0.42876000  0.84257240  0.34797417    -0.07400
C650        C  0.42665617  0.80571309  0.32353349     0.13400
C651        C  0.45962475  0.77665926  0.31848119    -0.24200
H652        H  0.39162581  0.76783201  0.28368976     0.14700
H653        H  0.39677255  0.89419703  0.37139345     0.14800
C654        C  0.32800605  0.88332744  0.33892485    -0.24200
H655        H  0.45151072  0.74800347  0.30095110     0.05000
H656        H  0.46970032  0.76627130  0.34853742     0.08200
H657        H  0.48309685  0.79270177  0.30167012     0.08200
H658        H  0.30307000  0.86367480  0.34849599     0.08200
H659        H  0.32120268  0.90078004  0.31098839     0.08200
H660        H  0.33350988  0.90715661  0.36294128     0.05000
C661        C  0.34766968  0.79366751  0.11236748    -0.20800
C662        C  0.33923479  0.82480306  0.14084098    -0.07400
C663        C  0.35734995  0.86490696  0.13824608     0.13500
C664        C  0.38096764  0.87371183  0.10522232    -0.20900
C665        C  0.38710299  0.84341834  0.07521719    -0.07400
C666        C  0.37171494  0.80226883  0.07976107     0.13400
C667        C  0.38106176  0.76696949  0.05113469    -0.24200
H668        H  0.33488290  0.76245857  0.11527259     0.14700
H669        H  0.39341086  0.90503724  0.10201282     0.14800
C670        C  0.35278673  0.89825991  0.17029100    -0.24200
H671        H  0.36977860  0.73617402  0.06220994     0.05000
H672        H  0.41241062  0.76468534  0.04818687     0.08200
H673        H  0.36821934  0.77214710  0.02106081     0.08200
H674        H  0.36055481  0.88552453  0.20030522     0.08200
H675        H  0.32302295  0.90902577  0.17090902     0.08200
H676        H  0.37143357  0.92629455  0.16448649     0.05000
C677        C  0.11691022  0.70935652  0.19873208    -0.20800
C678        C  0.14940387  0.68467582  0.19551786    -0.07400
C679        C  0.14772575  0.64874750  0.16983715     0.13500
C680        C  0.11325795  0.63712840  0.15098832    -0.20900
C681        C  0.08011346  0.66027559  0.15632479    -0.07400
C682        C  0.08248678  0.69787377  0.17945429     0.13400
C683        C  0.04935652  0.72676456  0.18351472    -0.24200
H684        H  0.11798131  0.73726198  0.21757966     0.14700
H685        H  0.11207337  0.60885970  0.13264810     0.14800
C686        C  0.18202462  0.62255225  0.16115517    -0.24200
H687        H  0.05752254  0.75638898  0.19945771     0.05000
H688        H  0.02623871  0.71139639  0.20130323     0.08200
H689        H  0.03874215  0.73525405  0.15309563     0.08200
H690        H  0.19061860  0.60520435  0.18854970     0.08200
H691        H  0.20580311  0.64319950  0.15040666     0.08200
H692        H  0.17616363  0.59868449  0.13725675     0.05000
C693        C  0.35371699  0.59134807  0.13138213    -0.20800
C694        C  0.38224550  0.57118185  0.15300554    -0.07400
C695        C  0.39088797  0.58515906  0.19268768     0.13500
C696        C  0.37021953  0.61823465  0.21004666    -0.20900
C697        C  0.34017234  0.63674450  0.18916993    -0.07400
C698        C  0.33227333  0.62340458  0.14911649     0.13400
C699        C  0.30061261  0.64240611  0.12522599    -0.24200
H700        H  0.34675985  0.58035782  0.10118812     0.14700
H701        H  0.37612505  0.62804872  0.24084189     0.14800
C702        C  0.42140020  0.56457936  0.21699983    -0.24200
H703        H  0.29891438  0.62934732  0.09410545     0.05000
H704        H  0.30540350  0.67693995  0.12302510     0.08200
H705        H  0.27296157  0.63567269  0.14026355     0.08200
H706        H  0.44898925  0.56736871  0.20075298     0.08200
H707        H  0.41396806  0.53084480  0.22153906     0.08200
H708        H  0.42491357  0.57944447  0.24721810     0.05000
C709        C  0.19140146  0.89551962  0.34447732    -0.20800
C710        C  0.17350698  0.86931882  0.31547547    -0.07400
C711        C  0.13458316  0.87567111  0.30671300     0.13500
C712        C  0.11556069  0.90949814  0.32518218    -0.20900
C713        C  0.13457309  0.93720990  0.35200846    -0.07400
C714        C  0.17258909  0.92915675  0.36264408     0.13400
C715        C  0.19362257  0.95642886  0.39301344    -0.24200
H716        H  0.22092751  0.89049370  0.35209654     0.14700
H717        H  0.08632710  0.91554168  0.31716066     0.14800
C718        C  0.11366041  0.84852163  0.27629661    -0.24200
H719        H  0.22265667  0.94494922  0.39898173     0.05000
H720        H  0.17776030  0.95642310  0.42204979     0.08200
H721        H  0.19656689  0.98911452  0.38165897     0.08200
H722        H  0.11278285  0.81537187  0.28667573     0.08200
H723        H  0.12825372  0.85054959  0.24656560     0.08200
H724        H  0.08387641  0.85851689  0.27214994     0.05000
C725        C  0.84049315  0.64012278  0.35902678    -0.20800
C726        C  0.80272567  0.65260823  0.36141642    -0.07400
C727        C  0.78129401  0.64404043  0.39653886     0.13500
C728        C  0.79892199  0.62587081  0.42980899    -0.20900
C729        C  0.83778080  0.61651747  0.42921118    -0.07400
C730        C  0.85853968  0.62216236  0.39247472     0.13400
C731        C  0.90000841  0.61175613  0.38830605    -0.24200
H732        H  0.85666549  0.64721975  0.33185697     0.14700
H733        H  0.78237417  0.62039286  0.45701385     0.14800
C734        C  0.73991314  0.65518233  0.39928340    -0.24200
H735        H  0.91128788  0.61952936  0.35778387     0.05000
H736        H  0.90374629  0.57756441  0.39285848     0.08200
H737        H  0.91725083  0.63008118  0.41059268     0.08200
H738        H  0.72376833  0.63923123  0.37457430     0.08200
H739        H  0.73679897  0.68966933  0.39661085     0.08200
H740        H  0.72706915  0.64522458  0.42851017     0.05000
C741        C  0.68530482  0.65134951  0.13836906    -0.20800
C742        C  0.69969730  0.64996189  0.17827253    -0.07400
C743        C  0.68642682  0.61679005  0.20365492     0.13500
C744        C  0.66273957  0.58467680  0.18741790    -0.20900
C745        C  0.65161500  0.58415772  0.14657687    -0.07400
C746        C  0.66144166  0.61919610  0.12235735     0.13400
C747        C  0.64830390  0.62219972  0.07917051    -0.24200
H748        H  0.69371324  0.67716032  0.11878333     0.14700
H749        H  0.65376092  0.55877206  0.20661763     0.14800
C750        C  0.69710772  0.61414671  0.24769085    -0.24200
H751        H  0.65901067  0.65152505  0.06449083     0.05000
H752        H  0.61673210  0.62227088  0.07821350     0.08200
H753        H  0.65876926  0.59517842  0.06142457     0.08200
H754        H  0.68850120  0.64310512  0.26372154     0.08200
H755        H  0.72820824  0.60994120  0.25078014     0.08200
H756        H  0.68269505  0.58704362  0.26289637     0.05000
C757        C  0.66992002  0.86501483  0.14631924    -0.20800
C758        C  0.70944870  0.86136206  0.14757640    -0.07400
C759        C  0.73220999  0.88084455  0.11759878     0.13500
C760        C  0.71470251  0.89970251  0.08449659    -0.20900
C761        C  0.67492052  0.89984770  0.08097455    -0.07400
C762        C  0.65219074  0.88437824  0.11349892     0.13400
C763        C  0.60931773  0.88528182  0.11287986    -0.24200
H764        H  0.65273762  0.84980599  0.16950320     0.14700
H765        H  0.73217107  0.91275710  0.06036760     0.14800
C766        C  0.77500261  0.88047569  0.12002303    -0.24200
H767        H  0.59655935  0.87037548  0.14019185     0.05000
H768        H  0.59815404  0.86796712  0.08606474     0.08200
H769        H  0.59993254  0.91831805  0.11219172     0.08200
H770        H  0.78501427  0.84769360  0.11911789     0.08200
H771        H  0.78451507  0.89558719  0.14869621     0.08200
H772        H  0.78853499  0.89793447  0.09456055     0.05000
C773        C  0.57351885  0.83912987  0.31622859    -0.20800
C774        C  0.56917171  0.84696212  0.35774307    -0.07400
C775        C  0.60075328  0.84240564  0.38377337     0.13500
C776        C  0.63544972  0.82983773  0.36753635    -0.20900
C777        C  0.63978504  0.82140020  0.32609092    -0.07400
C778        C  0.60842326  0.82670946  0.29996292     0.13400
C779        C  0.61096533  0.81828069  0.25523244    -0.24200
H780        H  0.54943691  0.84300084  0.29627419     0.14700
H781        H  0.65942932  0.82601438  0.38765835     0.14800
C782        C  0.59808203  0.84885749  0.42891451    -0.24200
H783        H  0.58326976  0.82261605  0.23986242     0.05000
H784        H  0.61963203  0.78542581  0.24983638     0.08200
H785        H  0.63195676  0.84047247  0.24131124     0.08200
H786        H  0.57462847  0.82884710  0.44148675     0.08200
H787        H  0.59313159  0.88237975  0.43592939     0.08200
H788        H  0.62473630  0.84032787  0.44456127     0.05000
C789        C  0.83909516  0.93098931  0.31738171    -0.20800
C790        C  0.84704832  0.93496888  0.35880632    -0.07400
C791        C  0.83308418  0.90373990  0.38550012     0.13500
C792        C  0.81150032  0.86952645  0.37007405    -0.20900
C793        C  0.80276806  0.86558938  0.32851704    -0.07400
C794        C  0.81732406  0.89700111  0.30177896     0.13400
C795        C  0.81012954  0.89575819  0.25684678    -0.24200
H796        H  0.84955169  0.95530085  0.29702421     0.14700
H797        H  0.80060264  0.84616707  0.39112866     0.14800
C798        C  0.83903211  0.90739330  0.43049826    -0.24200
H799        H  0.82457901  0.92241129  0.24097420     0.05000
H800        H  0.77920366  0.89796600  0.25074594     0.08200
H801        H  0.82115898  0.86628485  0.24378369     0.08200
H802        H  0.82724752  0.93731832  0.44171248     0.08200
H803        H  0.86984828  0.90659604  0.43756832     0.08200
H804        H  0.82465429  0.88119001  0.44709859     0.05000
C805        C  0.89806195  0.67196974  0.20892549    -0.20800
C806        C  0.86777918  0.67473721  0.18146031    -0.07400
C807        C  0.87202973  0.65759572  0.14224713     0.13500
C808        C  0.90767141  0.64324181  0.13010348    -0.20900
C809        C  0.93907190  0.64389334  0.15643106    -0.07400
C810        C  0.93318182  0.65544919  0.19738300     0.13400
C811        C  0.96213181  0.64915941  0.23026796    -0.24200
H812        H  0.89444875  0.68297659  0.23970046     0.14700
H813        H  0.91115478  0.63256621  0.09923333     0.14800
C814        C  0.83906091  0.65328633  0.11321602    -0.24200
H815        H  0.94852253  0.63151377  0.25557873     0.05000
H816        H  0.97255262  0.68011192  0.24183654     0.08200
H817        H  0.98652904  0.63033363  0.22050618     0.08200
H818        H  0.82997593  0.68460976  0.10298316     0.08200
H819        H  0.81488625  0.63632340  0.12810798     0.08200
H820        H  0.84676295  0.63515411  0.08580034     0.05000
C821        C  0.35598646  0.33972546  0.85775066    -0.20800
C822        C  0.33355846  0.34162365  0.82275394    -0.07400
C823        C  0.33100972  0.38025327  0.80242311     0.13500
C824        C  0.35069102  0.41600767  0.81759240    -0.20900
C825        C  0.37308594  0.41478090  0.85308555    -0.07400
C826        C  0.37601854  0.37539405  0.87302243     0.13400
C827        C  0.39916503  0.37030247  0.91090539    -0.24200
H828        H  0.35723733  0.31012565  0.87373662     0.14700
H829        H  0.34789605  0.44540260  0.80159368     0.14800
C830        C  0.30608518  0.38423619  0.76566213    -0.24200
H831        H  0.39751300  0.33755244  0.92242499     0.05000
H832        H  0.38839781  0.39114025  0.93508453     0.08200
H833        H  0.42957636  0.37790308  0.90460474     0.08200
H834        H  0.27622977  0.37524575  0.77341310     0.08200
H835        H  0.31627573  0.36328793  0.74128784     0.08200
H836        H  0.30637906  0.41688875  0.75388905     0.05000
C837        C  0.37116840  0.14658970  0.66136067    -0.20800
C838        C  0.37479616  0.18642712  0.67949957    -0.07400
C839        C  0.41107336  0.20633024  0.68190467     0.13500
C840        C  0.44261572  0.18604471  0.66577513    -0.20900
C841        C  0.43914711  0.14619625  0.64742789    -0.07400
C842        C  0.40275072  0.12600237  0.64554348     0.13400
C843        C  0.39665886  0.08251494  0.62803662    -0.24200
H844        H  0.34329671  0.13130887  0.65973418     0.14700
H845        H  0.47023525  0.20187683  0.66710837     0.14800
C846        C  0.41668609  0.24954805  0.70004769    -0.24200
H847        H  0.36682220  0.07088903  0.63189533     0.05000
H848        H  0.41538831  0.06004329  0.64350433     0.08200
H849        H  0.40267439  0.08277414  0.59512375     0.08200
H850        H  0.40942868  0.24882448  0.73268001     0.08200
H851        H  0.39838558  0.27219311  0.68423495     0.08200
H852        H  0.44664943  0.26112779  0.69735724     0.05000
C853        C  0.14530410  0.09409503  0.68496465    -0.20800
C854        C  0.13467139  0.09048082  0.64396413    -0.07400
C855        C  0.14496929  0.12375876  0.61743510     0.13500
C856        C  0.16657709  0.15840281  0.63212498    -0.20900
C857        C  0.17799304  0.16145336  0.67276692    -0.07400
C858        C  0.16647260  0.12920749  0.69971198     0.13400
C859        C  0.17802876  0.13069729  0.74350400    -0.24200
H860        H  0.13765350  0.06879224  0.70550288     0.14700
H861        H  0.17535345  0.18314127  0.61140799     0.14800
C862        C  0.13514733  0.12221726  0.57311727    -0.24200
H863        H  0.16766830  0.10237804  0.76012736     0.05000
H864        H  0.16586503  0.15867617  0.75831499     0.08200
H865        H  0.20953536  0.13243434  0.74591078     0.08200
H866        H  0.10379385  0.12210426  0.56924351     0.08200
H867        H  0.14691878  0.09358665  0.55908393     0.08200
H868        H  0.14704907  0.14990954  0.55661939     0.05000
C869        C  0.14461638  0.33593055  0.85619248    -0.20800
C870        C  0.14500881  0.32366813  0.81526776    -0.07400
C871        C  0.11457854  0.33568269  0.79008833     0.13500
C872        C  0.08389476  0.35703104  0.80711641    -0.20900
C873        C  0.08291649  0.36770450  0.84837301    -0.07400
C874        C  0.11439529  0.35806470  0.87296799     0.13400
C875        C  0.11614918  0.36957495  0.91719168    -0.24200
H876        H  0.16800790  0.32760009  0.87565203     0.14700
H877        H  0.06030372  0.36542054  0.78795047     0.14800
C878        C  0.11432422  0.32728670  0.74522529    -0.24200
H879        H  0.14223359  0.35792273  0.93189004     0.05000
H880        H  0.11661459  0.40427932  0.92070120     0.08200
H881        H  0.09122714  0.35558909  0.93334400     0.08200
H882        H  0.11309864  0.29295962  0.73927486     0.08200
H883        H  0.14025302  0.34162445  0.73125182     0.08200
H884        H  0.08928794  0.34104060  0.73022126     0.05000
C885        C  0.18709458  0.37704384  0.57175252    -0.20800
C886        C  0.14746892  0.37106371  0.57064091    -0.07400
C887        C  0.12874271  0.34970794  0.60263005     0.13500
C888        C  0.15067042  0.33120371  0.63287385    -0.20900
C889        C  0.19057663  0.33383928  0.63166210    -0.07400
C890        C  0.20893254  0.35902708  0.60205901     0.13400
C891        C  0.25141725  0.36716529  0.60220609    -0.24200
H892        H  0.20119696  0.39465278  0.54779473     0.14700
H893        H  0.13671747  0.31233891  0.65602043     0.14800
C894        C  0.08608716  0.34409395  0.60374170    -0.24200
H895        H  0.26019426  0.39043000  0.57881524     0.05000
H896        H  0.26673321  0.33786871  0.59575953     0.08200
H897        H  0.26037556  0.37991774  0.63207566     0.08200
H898        H  0.07603663  0.32745208  0.57607445     0.08200
H899        H  0.07273076  0.37527283  0.60567197     0.08200
H900        H  0.07648501  0.32545322  0.63036111     0.05000
C901        C  0.30324622  0.13210921  0.87769356    -0.20800
C902        C  0.32372804  0.16479666  0.85867985    -0.07400
C903        C  0.36240855  0.17245780  0.86836790     0.13500
C904        C  0.37870849  0.14937439  0.89959251    -0.20900
C905        C  0.35697928  0.11942269  0.92108307    -0.07400
C906        C  0.31961850  0.10898764  0.90868919     0.13400
C907        C  0.29701031  0.07378003  0.92825734    -0.24200
H908        H  0.27381610  0.12587015  0.86936154     0.14700
H909        H  0.40761155  0.15676572  0.90914724     0.14800
C910        C  0.38560565  0.20686034  0.84807775    -0.24200
H911        H  0.26877094  0.06889576  0.91373167     0.05000
H912        H  0.29217448  0.08101265  0.96049934     0.08200
H913        H  0.31278036  0.04408807  0.92565539     0.08200
H914        H  0.37189256  0.23753813  0.85267529     0.08200
H915        H  0.38781108  0.20027669  0.81521764     0.08200
H916        H  0.41492954  0.20938463  0.86047431     0.05000
C917        C  0.82718268  0.39049763  0.64870626    -0.20800
C918        C  0.79267481  0.36820446  0.64510197    -0.07400
C919        C  0.77149017  0.37062180  0.60913035     0.13500
C920        C  0.78811085  0.38974971  0.57532086    -0.20900
C921        C  0.82576558  0.40564313  0.57653215    -0.07400
C922        C  0.84421472  0.40952611  0.61480396     0.13400
C923        C  0.88226767  0.43172207  0.62061263    -0.24200
H924        H  0.84263820  0.38935081  0.67701136     0.14700
H925        H  0.77254123  0.38902189  0.54709187     0.14800
C926        C  0.73201882  0.35119052  0.60587127    -0.24200
H927        H  0.88948344  0.43534787  0.65313342     0.05000
H928        H  0.88163415  0.46372469  0.60737650     0.08200
H929        H  0.90527516  0.41335503  0.60666837     0.08200
H930        H  0.71348768  0.36465564  0.62954487     0.08200
H931        H  0.73284822  0.31662558  0.60973765     0.08200
H932        H  0.71896590  0.35740969  0.57599746     0.05000
C933        C  0.70106204  0.39405616  0.80356926    -0.20800
C934        C  0.70526795  0.35919202  0.82897907    -0.07400
C935        C  0.68485102  0.35857351  0.86621269     0.13500
C936        C  0.66320695  0.39356643  0.87760879    -0.20900
C937        C  0.66141516  0.42961155  0.85332212    -0.07400
C938        C  0.67976640  0.42893957  0.81497174     0.13400
C939        C  0.67691183  0.46437907  0.78502755    -0.24200
H940        H  0.71563309  0.39483594  0.77470206     0.14700
H941        H  0.64887224  0.39342565  0.90661217     0.14800
C942        C  0.68549991  0.32152481  0.89446950    -0.24200
H943        H  0.68959289  0.45629406  0.75533040     0.05000
H944        H  0.69263695  0.49275426  0.79609658     0.08200
H945        H  0.64653759  0.47125362  0.77973852     0.08200
H946        H  0.71459604  0.31775290  0.90667451     0.08200
H947        H  0.67603458  0.29252817  0.87823539     0.08200
H948        H  0.66618432  0.32564631  0.92069260     0.05000
C949        C  0.82822212  0.12566936  0.70079043    -0.20800
C950        C  0.81489104  0.15477600  0.67249765    -0.07400
C951        C  0.82761090  0.15120648  0.63162803     0.13500
C952        C  0.85041434  0.11736722  0.62029097    -0.20900
C953        C  0.86105898  0.08684241  0.64816891    -0.07400
C954        C  0.85141996  0.09234419  0.68936669     0.13400
C955        C  0.86545757  0.06401391  0.72232544    -0.24200
H956        H  0.82024975  0.12849709  0.73230918     0.14700
H957        H  0.85817487  0.11337347  0.58882281     0.14800
C958        C  0.81673798  0.18167034  0.59897949    -0.24200
H959        H  0.87977917  0.08336458  0.74607985     0.05000
H960        H  0.88655973  0.04127777  0.71148835     0.08200
H961        H  0.84100342  0.04650910  0.73606225     0.08200
H962        H  0.82670432  0.21395070  0.60719402     0.08200
H963        H  0.78542797  0.18065943  0.59455987     0.08200
H964        H  0.82987825  0.17393162  0.56942096     0.05000
C965        C  0.61850076  0.16910700  0.70292525    -0.20800
C966        C  0.64959435  0.17161354  0.67650457    -0.07400
C967        C  0.64590768  0.15447894  0.63711496     0.13500
C968        C  0.61068433  0.13717533  0.62468296    -0.20900
C969        C  0.57865566  0.13720545  0.65013329    -0.07400
C970        C  0.58300949  0.15260939  0.69032101     0.13400
C971        C  0.55079058  0.15197804  0.72049045    -0.24200
H972        H  0.62147036  0.18213949  0.73308419     0.14700
H973        H  0.60786011  0.12503316  0.59418135     0.14800
C974        C  0.67899838  0.15393677  0.60802183    -0.24200
H975        H  0.56057012  0.16170171  0.75110725     0.05000
H976        H  0.53827663  0.11971017  0.72289880     0.08200
H977        H  0.52869611  0.17431572  0.71131130     0.08200
H978        H  0.70357399  0.13859082  0.62236125     0.08200
H979        H  0.68732779  0.18639213  0.59893105     0.08200
H980        H  0.67175117  0.13627483  0.57996100     0.05000
C981        C  0.65282393  0.12759404  0.88792732    -0.20800
C982        C  0.67328150  0.11770912  0.92301295    -0.07400
C983        C  0.71362122  0.11733395  0.92126631     0.13500
C984        C  0.73213153  0.13205146  0.88636640    -0.20900
C985        C  0.71145202  0.14707907  0.85358355    -0.07400
C986        C  0.67152554  0.14273576  0.85331336     0.13400
C987        C  0.64863714  0.15723164  0.81772234    -0.24200
H988        H  0.62199421  0.12675285  0.88853663     0.14700
H989        H  0.76290683  0.13548208  0.88608703     0.14800
C990        C  0.73762719  0.10285561  0.95607733    -0.24200
H991        H  0.61761610  0.15189488  0.82250092     0.05000
H992        H  0.65706131  0.13959582  0.79027818     0.08200
H993        H  0.65386315  0.19136290  0.81262475     0.08200
H994        H  0.72742297  0.07136129  0.96637331     0.08200
H995        H  0.73661120  0.12574558  0.98134089     0.08200
H996        H  0.76799035  0.10030126  0.94728205     0.05000
C997        C  0.90185640  0.33957016  0.79635106    -0.20800
C998        C  0.87051136  0.34064771  0.82250913    -0.07400
C999        C  0.87474859  0.35998745  0.86079627     0.13500
C1000       C  0.91071311  0.37522932  0.87284336    -0.20900
C1001       C  0.94281919  0.37232253  0.84763820    -0.07400
C1002       C  0.93800164  0.35480216  0.80833378     0.13400
C1003       C  0.97035364  0.35164102  0.77858311    -0.24200
H1004       H  0.89841220  0.32484880  0.76694990     0.14700
H1005       H  0.91358150  0.38906455  0.90268612     0.14800
C1006       C  0.84196276  0.36587524  0.88956282    -0.24200
H1007       H  0.96047403  0.33978897  0.74868774     0.05000
H1008       H  0.99158461  0.32925584  0.78980310     0.08200
H1009       H  0.98394398  0.38310450  0.77383021     0.08200
H1010       H  0.84655007  0.34724344  0.91737381     0.08200
H1011       H  0.81400094  0.35666078  0.87644271     0.08200
H1012       H  0.84041665  0.39960192  0.89796030     0.05000
C1013       C  0.13196959  0.69596971  0.57880396    -0.20800
C1014       C  0.12538288  0.65266610  0.57445690    -0.07400
C1015       C  0.13904642  0.62463430  0.60357337     0.13500
C1016       C  0.16081605  0.64068001  0.63540891    -0.20900
C1017       C  0.16964858  0.68393991  0.63882599    -0.07400
C1018       C  0.15353015  0.71229279  0.61092020     0.13400
C1019       C  0.15886976  0.75944330  0.61383256    -0.24200
H1020       H  0.12086061  0.71704939  0.55624239     0.14700
H1021       H  0.17183711  0.61874160  0.65717759     0.14800
C1022       C  0.13285222  0.57763211  0.60018842    -0.24200
H1023       H  0.14342325  0.77592162  0.58953405     0.05000
H1024       H  0.18945429  0.76841014  0.61084258     0.08200
H1025       H  0.14754405  0.77081145  0.64312054     0.08200
H1026       H  0.14435456  0.56621976  0.57099874     0.08200
H1027       H  0.10202546  0.56955332  0.60224334     0.08200
H1028       H  0.14731950  0.56058039  0.62480394     0.05000
C1029       C  0.39590718  0.79614158  0.69636927    -0.20800
C1030       C  0.36299946  0.81985978  0.69213540    -0.07400
C1031       C  0.36383578  0.85423939  0.66481354     0.13500
C1032       C  0.39803001  0.86556063  0.64527479    -0.20900
C1033       C  0.43192275  0.84425014  0.65238096    -0.07400
C1034       C  0.43031834  0.80785203  0.67726106     0.13400
C1035       C  0.46437661  0.78091345  0.68440069    -0.24200
H1036       H  0.39532487  0.76934064  0.71651413     0.14700
H1037       H  0.39847317  0.89267966  0.62555195     0.14800
C1038       C  0.32911295  0.87963189  0.65584023    -0.24200
H1039       H  0.45672038  0.75204239  0.70167835     0.05000
H1040       H  0.48613032  0.79849430  0.70239288     0.08200
H1041       H  0.47655900  0.77088149  0.65505410     0.08200
H1042       H  0.32110216  0.89840169  0.68268356     0.08200
H1043       H  0.30505980  0.85841455  0.64672519     0.08200
H1044       H  0.33432641  0.90223235  0.63079988     0.05000
C1045       C  0.08380166  0.69001960  0.81258832    -0.20800
C1046       C  0.08693932  0.66158125  0.84494209    -0.07400
C1047       C  0.12401687  0.64984540  0.85712033     0.13500
C1048       C  0.15590095  0.66519583  0.83555475    -0.20900
C1049       C  0.15236234  0.69224438  0.80239674    -0.07400
C1050       C  0.11570181  0.70544257  0.79131618     0.13400
C1051       C  0.10950328  0.73450156  0.75614593    -0.24200
H1052       H  0.05597964  0.69992793  0.80303458     0.14700
H1053       H  0.18401448  0.65525212  0.84420568     0.14800
C1054       C  0.13099285  0.62101170  0.89231024    -0.24200
H1055       H  0.07886655  0.74036164  0.75105276     0.05000
H1056       H  0.12103864  0.72063170  0.72798611     0.08200
H1057       H  0.12378396  0.76530390  0.76233541     0.08200
H1058       H  0.11791540  0.58950500  0.88635413     0.08200
H1059       H  0.11915456  0.63466920  0.92040572     0.08200
H1060       H  0.16182201  0.61646650  0.89756389     0.05000
C1061       C  0.35051938  0.63728478  0.84491339    -0.20800
C1062       C  0.34403607  0.63519460  0.80307387    -0.07400
C1063       C  0.35742916  0.60033259  0.78126259     0.13500
C1064       C  0.37558755  0.56783458  0.80183564    -0.20900
C1065       C  0.38084395  0.56895215  0.84396068    -0.07400
C1066       C  0.36900784  0.60482238  0.86561424     0.13400
C1067       C  0.37345245  0.60783160  0.91078529    -0.24200
H1068       H  0.33889264  0.66302957  0.86188352     0.14700
H1069       H  0.38471480  0.54060269  0.78499550     0.14800
C1070       C  0.35167629  0.59688362  0.73624190    -0.24200
H1071       H  0.36133227  0.63717291  0.92299716     0.05000
H1072       H  0.40408665  0.60786415  0.91884377     0.08200
H1073       H  0.35852654  0.58075311  0.92545529     0.08200
H1074       H  0.36519350  0.62455736  0.72112530     0.08200
H1075       H  0.32083409  0.59563944  0.72908063     0.08200
H1076       H  0.36450651  0.56809852  0.72366869     0.05000
C1077       C  0.34892528  0.86607051  0.86901346    -0.20800
C1078       C  0.34042019  0.82322931  0.86218663    -0.07400
C1079       C  0.35514320  0.79285771  0.88906162     0.13500
C1080       C  0.37641389  0.80645447  0.92239904    -0.20900
C1081       C  0.38407333  0.84910037  0.92925228    -0.07400
C1082       C  0.37058860  0.87945123  0.90214581     0.13400
C1083       C  0.37736152  0.92600343  0.90872596    -0.24200
H1084       H  0.33842606  0.88950785  0.84842338     0.14700
H1085       H  0.38710305  0.78360745  0.94354808     0.14800
C1086       C  0.34866482  0.74617372  0.88377771    -0.24200
H1087       H  0.36269305  0.94503915  0.88567713     0.05000
H1088       H  0.40821901  0.93389369  0.90660064     0.08200
H1089       H  0.36645499  0.93529319  0.93887569     0.08200
H1090       H  0.36209274  0.73576799  0.85519910     0.08200
H1091       H  0.31770335  0.73839641  0.88363854     0.08200
H1092       H  0.36158075  0.72791080  0.90858488     0.05000
C1093       C  0.19483607  0.89978845  0.65554502    -0.20800
C1094       C  0.17669844  0.87244682  0.68319052    -0.07400
C1095       C  0.13684805  0.87577182  0.68898256     0.13500
C1096       C  0.11705894  0.90814581  0.66931281    -0.20900
C1097       C  0.13605473  0.93688307  0.64363216    -0.07400
C1098       C  0.17514966  0.93157711  0.63572245     0.13400
C1099       C  0.19639984  0.95974345  0.60637714    -0.24200
H1100       H  0.22506540  0.89689202  0.65002717     0.14700
H1101       H  0.08705479  0.91214153  0.67534933     0.14800
C1102       C  0.11538578  0.84660926  0.71705388    -0.24200
H1103       H  0.22631873  0.95011547  0.60231648     0.05000
H1104       H  0.19702490  0.99267288  0.61745829     0.08200
H1105       H  0.18221178  0.95825909  0.57642818     0.08200
H1106       H  0.12782150  0.84862147  0.74784395     0.08200
H1107       H  0.11694482  0.81392804  0.70553726     0.08200
H1108       H  0.08485791  0.85454033  0.71922296     0.05000
C1109       C  0.83764161  0.63657959  0.64858117    -0.20800
C1110       C  0.80013924  0.64983537  0.64576655    -0.07400
C1111       C  0.77887437  0.64053623  0.61060398     0.13500
C1112       C  0.79666081  0.62141214  0.57767222    -0.20900
C1113       C  0.83558767  0.61222758  0.57850871    -0.07400
C1114       C  0.85589779  0.61805733  0.61540676     0.13400
C1115       C  0.89731444  0.60770928  0.61983549    -0.24200
H1116       H  0.85369033  0.64397647  0.67566661     0.14700
H1117       H  0.78040002  0.61563425  0.55032524     0.14800
C1118       C  0.73764703  0.65213180  0.60730613    -0.24200
H1119       H  0.90830418  0.61548962  0.65048553     0.05000
H1120       H  0.91472379  0.62610013  0.59780194     0.08200
H1121       H  0.90111154  0.57353257  0.61504090     0.08200
H1122       H  0.73488344  0.68674181  0.60900314     0.08200
H1123       H  0.72114723  0.63726924  0.63231502     0.08200
H1124       H  0.72489720  0.64131717  0.57827572     0.05000
C1125       C  0.68701774  0.62991108  0.80983417    -0.20800
C1126       C  0.71329240  0.64914756  0.83652498    -0.07400
C1127       C  0.71295200  0.63594710  0.87774955     0.13500
C1128       C  0.68816018  0.60282115  0.88997703    -0.20900
C1129       C  0.66332128  0.58273898  0.86265665    -0.07400
C1130       C  0.66207304  0.59723523  0.82240632     0.13400
C1131       C  0.63402940  0.57848368  0.79267092    -0.24200
H1132       H  0.68594430  0.64041821  0.77875162     0.14700
H1133       H  0.68920878  0.59134687  0.92076336     0.14800
C1134       C  0.73923762  0.65520903  0.90912548    -0.24200
H1135       H  0.63593693  0.59422160  0.76280158     0.05000
H1136       H  0.60466508  0.58189971  0.80439984     0.08200
H1137       H  0.63952939  0.54475523  0.78804338     0.08200
H1138       H  0.73255926  0.68878761  0.91376628     0.08200
H1139       H  0.76930813  0.65225614  0.89944047     0.08200
H1140       H  0.73607504  0.63946712  0.93890120     0.05000
C1141       C  0.63932482  0.84026191  0.64353330    -0.20800
C1142       C  0.64153219  0.82731176  0.68396285    -0.07400
C1143       C  0.60888646  0.83033101  0.70882077     0.13500
C1144       C  0.57494273  0.84515420  0.69221493    -0.20900
C1145       C  0.57258147  0.85696924  0.65139479    -0.07400
C1146       C  0.60552389  0.85471542  0.62681032     0.13400
C1147       C  0.60530012  0.86528816  0.58237204    -0.24200
H1148       H  0.66427858  0.83824407  0.62441620     0.14700
H1149       H  0.54989790  0.84708361  0.71120253     0.14800
C1150       C  0.60903311  0.81673019  0.75231843    -0.24200
H1151       H  0.63284290  0.85841330  0.56758169     0.05000
H1152       H  0.60040835  0.89929860  0.57817118     0.08200
H1153       H  0.58282039  0.84632491  0.56669714     0.08200
H1154       H  0.62939089  0.83704588  0.76951073     0.08200
H1155       H  0.61728500  0.78335142  0.75445392     0.08200
H1156       H  0.58060956  0.81958149  0.76663537     0.05000
C1157       C  0.72394422  0.88389940  0.88195138    -0.20800
C1158       C  0.70353099  0.85034192  0.86402308    -0.07400
C1159       C  0.66803952  0.83710810  0.88024389     0.13500
C1160       C  0.65348271  0.85821303  0.91371041    -0.20900
C1161       C  0.67479610  0.89007362  0.93301458    -0.07400
C1162       C  0.71025870  0.90343021  0.91701447     0.13400
C1163       C  0.73373708  0.93765258  0.93721887    -0.24200
H1164       H  0.75173992  0.89288090  0.87012679     0.14700
H1165       H  0.62631810  0.84811953  0.92641556     0.03000
C1166       C  0.64635281  0.79938488  0.86364541    -0.24200
H1167       H  0.76055349  0.94454604  0.92045776     0.05000
H1168       H  0.74134170  0.92787633  0.96829236     0.08200
H1169       H  0.71725975  0.96693008  0.93875207     0.08200
H1170       H  0.66291319  0.77053022  0.86809928     0.08200
H1171       H  0.64107603  0.80362574  0.83099143     0.08200
H1172       H  0.61844672  0.79455094  0.87893448     0.05000
C1173       C  0.83447213  0.93657394  0.68545288    -0.20800
C1174       C  0.85339448  0.93334504  0.64795403    -0.07400
C1175       C  0.85042250  0.89448648  0.62703572     0.13500
C1176       C  0.82729641  0.86152908  0.64298265    -0.20900
C1177       C  0.80675950  0.86562533  0.67952293    -0.07400
C1178       C  0.81135658  0.90383670  0.70136932     0.13400
C1179       C  0.79143364  0.91142685  0.74103761    -0.24200
H1180       H  0.83710340  0.96561699  0.70248107     0.14700
H1181       H  0.82487745  0.83233181  0.62617032     0.14800
C1182       C  0.87050823  0.88747668  0.58742834    -0.24200
H1183       H  0.79794709  0.94332057  0.75330271     0.05000
H1184       H  0.80084055  0.88842620  0.76387931     0.08200
H1185       H  0.76013331  0.90870296  0.73686269     0.08200
H1186       H  0.90174722  0.89085674  0.59175829     0.08200
H1187       H  0.86088232  0.91046791  0.56468612     0.08200
H1188       H  0.86453659  0.85547893  0.57514055     0.05000
C1189       C  0.88252243  0.68274743  0.86385921    -0.20800
C1190       C  0.87704202  0.68887406  0.82228851    -0.07400
C1191       C  0.90665517  0.67926365  0.79509647     0.13500
C1192       C  0.94121432  0.66471245  0.81043875    -0.20900
C1193       C  0.94660554  0.65899531  0.85211961    -0.07400
C1194       C  0.91674526  0.66818138  0.87919462     0.13400
C1195       C  0.92099729  0.66471020  0.92446140    -0.24200
H1196       H  0.85979265  0.68990532  0.88476894     0.14700
H1197       H  0.96412011  0.65755783  0.78976998     0.14800
C1198       C  0.90248497  0.68526103  0.75024357    -0.24200
H1199       H  0.89584598  0.67675969  0.94075497     0.05000
H1200       H  0.94632015  0.68341078  0.93463308     0.08200
H1201       H  0.92384503  0.63135841  0.93332473     0.08200
H1202       H  0.89578277  0.71844857  0.74363272     0.08200
H1203       H  0.87933419  0.66419141  0.73878916     0.08200
H1204       H  0.92892772  0.67754060  0.73369289     0.05000
loop_ 
_geom_bond_atom_site_label_1 
_geom_bond_atom_site_label_2 
_geom_bond_distance 
_geom_bond_site_symmetry_2 
_ccdc_geom_bond_type 
O1           Ni9   1.926   1_545  S
O1           C11   1.284       .  A
O2           Ni9   1.927       .  S
O2           C12   1.282       .  A
O3           Ni9   1.923       .  S
O3           C13   1.281       .  A
O4           Ni9   1.924   1_545  S
O4           C14   1.282       .  A
O5          Ni10   1.916   1_545  S
O5           C14   1.282       .  A
O6          Ni10   1.913       .  S
O6           C13   1.281       .  A
O7          Ni10   1.904       .  S
O7           C12   1.280       .  A
O8          Ni10   1.909   1_545  S
O8           C11   1.278       .  A
Ni9         Ni10   2.391       .  S
C11         C397   1.469       .  S
C12         C361   1.466       .  S
C13         C423   1.469       .  S
C14         C313   1.472       .  S
O15         Ni23   1.898       .  S
O15          C25   1.277       .  A
O16         Ni23   1.899   1_455  S
O16          C26   1.277       .  A
O17         Ni23   1.910   1_455  S
O17          C27   1.280       .  A
O18         Ni23   1.907       .  S
O18          C28   1.280       .  A
O19         Ni24   1.905       .  S
O19          C28   1.279       .  A
O20         Ni24   1.908   1_455  S
O20          C27   1.279       .  A
O21         Ni24   1.902   1_455  S
O21          C26   1.279       .  A
O22         Ni24   1.899       .  S
O22          C25   1.279       .  A
Ni23        Ni24   2.397       .  S
C25         C337   1.449       .  S
C26         C367   1.447       .  S
C27         C379   1.458       .  S
C28         C433   1.454       .  S
O29         Ni37   1.938       .  S
O29          C39   1.285       .  A
O30         Ni37   1.939   1_554  S
O30          C40   1.285       .  A
O31         Ni37   1.933   1_554  S
O31          C41   1.284       .  A
O32         Ni37   1.938       .  S
O32          C42   1.285       .  A
O33         Ni38   1.939       .  S
O33          C42   1.285       .  A
O34         Ni38   1.936   1_554  S
O34          C41   1.284       .  A
O35         Ni38   1.941   1_554  S
O35          C40   1.286       .  A
O36         Ni38   1.943       .  S
O36          C39   1.285       .  A
Ni37        Ni38   2.382       .  S
C39         C427   1.497       .  S
C40         C345   1.497       .  S
C41         C331   1.490       .  S
C42         C403   1.494       .  S
O43         Ni51   1.920       .  S
O43          C53   1.281       .  A
O44         Ni51   1.920   1_556  S
O44          C54   1.281       .  A
O45         Ni51   1.925       .  S
O45          C55   1.282       .  A
O46         Ni51   1.925   1_556  S
O46          C56   1.283       .  A
O47         Ni52   1.913       .  S
O47          C56   1.280   1_655  A
O48         Ni52   1.910   1_554  S
O48          C55   1.280   1_655  A
O49         Ni52   1.909       .  S
O49          C54   1.281   1_655  A
O50         Ni52   1.910   1_554  S
O50          C53   1.280   1_655  A
Ni51        Ni52   2.391   1_454  S
C53         C301   1.466       .  S
C54         C415   1.465       .  S
C55         C351   1.469       .  S
C56         C385   1.470       .  S
O57         Ni65   1.894       .  S
O57          C67   1.275       .  A
O58         Ni65   1.891   1_565  S
O58          C68   1.277   1_556  A
O59         Ni65   1.911       .  S
O59          C69   1.281       .  A
O60         Ni65   1.909   1_565  S
O60          C70   1.281   1_556  A
O61         Ni66   1.900   1_565  S
O61          C70   1.278       .  A
O62         Ni66   1.902       .  S
O62          C69   1.278   1_554  A
O63         Ni66   1.904   1_565  S
O63          C68   1.278       .  A
O64         Ni66   1.900       .  S
O64          C67   1.280   1_554  A
Ni65        Ni66   2.397   1_556  S
C67         C325   1.446       .  S
C68         C355   1.444       .  S
C69         C307   1.455       .  S
C70         C373   1.452       .  S
O71         Ni77   1.906       .  S
O71          C92   1.265       .  A
O72         Ni95   1.920       .  S
O72          C81   1.273       .  A
O73         Ni77   1.891       .  S
O73         Ni95   1.898       .  S
O73         Ni89   1.911       .  S
O73          H96   0.966       .  S
C74          O91   1.277       .  A
C74          O83   1.278       .  A
C74        C1142   1.488       .  S
O75         Ni94   1.915       .  S
O75          C81   1.269       .  A
O76         Ni94   1.909       .  S
O76          C78   1.269       .  A
Ni77         O80   1.901       .  S
Ni77         O82   1.905       .  S
C78          O88   1.277       .  A
C78        C1177   1.511       .  S
O79         Ni95   1.936       .  S
O79          C85   1.281       .  A
O80          C85   1.275       .  A
C81        C1110   1.471       .  S
O82          C84   1.265       .  A
O83         Ni94   1.919       .  S
C84          O90   1.278       .  A
C84        C1126   1.503       .  S
C85        C1190   1.481       .  S
H86          O87   0.966       .  S
O87         Ni95   1.916       .  S
O87         Ni89   1.901       .  S
O87         Ni94   1.896       .  S
O88         Ni89   1.948       .  S
Ni89         O93   1.919       .  S
Ni89         O91   1.923       .  S
O90         Ni95   1.947       .  S
C92          O93   1.271       .  A
C92        C1158   1.463       .  S
O97        Ni103   1.927       .  S
O97         C118   1.269       .  A
O98        Ni121   1.928       .  S
O98         C107   1.269       .  A
O99        Ni103   1.912       .  S
O99        Ni121   1.921       .  S
O99        Ni115   1.899       .  S
O99         H122   0.966       .  S
C100        O117   1.266       .  A
C100        O109   1.276       .  A
C100       C1078   1.480       .  S
O101       Ni120   1.937       .  S
O101        C107   1.273       .  A
O102       Ni120   1.899       .  S
O102        C104   1.266       .  A
Ni103       O106   1.913       .  S
Ni103       O108   1.899       .  S
C104        O114   1.277       .  A
C104       C1030   1.493       .  S
O105       Ni121   1.885       .  S
O105        C111   1.265       .  A
O106        C111   1.274       .  A
C107       C1094   1.500       .  S
O108        C110   1.268       .  A
O109       Ni120   1.920       .  S
C110        O116   1.275       .  A
C110       C1049   1.487       .  S
C111       C1017   1.478       .  S
H112        O113   0.966       .  S
O113       Ni121   1.896       .  S
O113       Ni115   1.919       .  S
O113       Ni120   1.910       .  S
O114       Ni115   1.940       .  S
Ni115       O119   1.928       .  S
Ni115       O117   1.886       .  S
O116       Ni121   1.937       .  S
C118        O119   1.272       .  A
C118       C1062   1.487       .  S
O123       Ni129   1.905       .  S
O123        C144   1.265       .  A
O124       Ni147   1.908       .  S
O124        C133   1.268       .  A
O125       Ni129   1.899       .  S
O125       Ni147   1.896       .  S
O125       Ni141   1.915       .  S
O125        H148   0.965       .  S
C126        O143   1.276       .  A
C126        O135   1.276       .  A
C126        C998   1.477       .  S
O127       Ni146   1.916       .  S
O127        C133   1.270       .  A
O128       Ni146   1.915       .  S
O128        C130   1.268       .  A
Ni129       O132   1.911       .  S
Ni129       O134   1.902       .  S
C130        O140   1.275       .  A
C130        C934   1.507       .  S
O131       Ni147   1.930       .  S
O131        C137   1.280       .  A
O132        C137   1.274       .  A
C133        C985   1.461       .  S
O134        C136   1.264       .  A
O135       Ni146   1.919       .  S
C136        O142   1.276       .  A
C136        C950   1.505       .  S
C137        C966   1.481       .  S
H138        O139   0.967       .  S
O139       Ni147   1.919       .  S
O139       Ni141   1.902       .  S
O139       Ni146   1.904       .  S
O140       Ni141   1.934       .  S
Ni141       O145   1.912       .  S
Ni141       O143   1.920       .  S
O142       Ni147   1.942       .  S
C144        O145   1.266       .  A
C144        C918   1.460       .  S
O149       Ni155   1.930       .  S
O149        C170   1.273       .  A
O150       Ni173   1.911       .  S
O150        C159   1.271       .  A
O151       Ni155   1.892       .  S
O151       Ni173   1.897       .  S
O151       Ni167   1.899       .  S
O151        H174   0.966       .  S
C152        O169   1.275       .  A
C152        O161   1.277       .  A
C152        C902   1.464       .  S
O153       Ni172   1.927       .  S
O153        C159   1.273       .  A
O154       Ni172   1.912       .  S
O154        C156   1.268       .  A
Ni155       O158   1.916       .  S
Ni155       O160   1.907       .  S
C156        O166   1.277       .  A
C156        C822   1.488       .  S
O157       Ni173   1.913       .  S
O157        C163   1.277       .  A
O158        C163   1.277       .  A
C159        C870   1.492       .  S
O160        C162   1.269       .  A
O161       Ni172   1.913       .  S
C162        O168   1.278       .  A
C162        C857   1.494       .  S
C163        C889   1.470       .  S
H164        O165   0.966       .  S
O165       Ni173   1.904       .  S
O165       Ni167   1.897       .  S
O165       Ni172   1.892       .  S
O166       Ni167   1.947       .  S
Ni167       O171   1.905       .  S
Ni167       O169   1.914       .  S
O168       Ni173   1.953       .  S
C170        O171   1.270       .  A
C170        C838   1.479       .  S
O175       Ni181   1.910       .  S
O175        C196   1.266       .  A
O176       Ni199   1.910       .  S
O176        C185   1.268       .  A
O177       Ni181   1.898       .  S
O177       Ni199   1.895       .  S
O177       Ni193   1.905       .  S
O177        H200   0.966       .  S
C178        O195   1.271       .  A
C178        O187   1.272       .  A
C178        C806   1.486       .  S
O179       Ni198   1.918       .  S
O179        C185   1.269       .  A
O180       Ni198   1.905       .  S
O180        C182   1.269       .  A
Ni181       O184   1.908       .  S
Ni181       O186   1.904       .  S
C182        O192   1.278       .  A
C182        C742   1.508       .  S
O183       Ni199   1.928       .  S
O183        C189   1.280       .  A
O184        C189   1.277       .  A
C185        C758   1.467       .  S
O186        C188   1.267       .  A
O187       Ni198   1.922       .  S
C188        O194   1.272       .  A
C188        C793   1.503       .  S
C189        C777   1.484       .  S
H190        O191   0.966       .  S
O191       Ni199   1.925       .  S
O191       Ni193   1.916       .  S
O191       Ni198   1.910       .  S
O192       Ni193   1.949       .  S
Ni193       O197   1.916       .  S
Ni193       O195   1.912       .  S
O194       Ni199   1.935       .  S
C196        O197   1.268       .  A
C196        C726   1.465       .  S
O201       Ni207   1.931       .  S
O201        C222   1.272       .  A
O202       Ni225   1.932       .  S
O202        C211   1.274       .  A
O203       Ni207   1.897       .  S
O203       Ni225   1.909       .  S
O203       Ni219   1.897       .  S
O203        H226   0.967       .  S
C204        O221   1.271       .  A
C204        O213   1.278       .  A
C204        C630   1.469       .  S
O205       Ni224   1.936       .  S
O205        C211   1.273       .  A
O206       Ni224   1.901       .  S
O206        C208   1.267       .  A
Ni207       O210   1.915       .  S
Ni207       O212   1.899       .  S
C208        O218   1.279       .  A
C208        C678   1.497       .  S
O209       Ni225   1.892       .  S
O209        C215   1.273       .  A
O210        C215   1.276       .  A
C211        C697   1.492       .  S
O212        C214   1.266       .  A
O213       Ni224   1.916       .  S
C214        O220   1.276       .  A
C214        C646   1.490       .  S
C215        C662   1.466       .  S
H216        O217   0.965       .  S
O217       Ni225   1.894       .  S
O217       Ni219   1.911       .  S
O217       Ni224   1.895       .  S
O218       Ni219   1.944       .  S
Ni219       O223   1.935       .  S
Ni219       O221   1.891       .  S
O220       Ni225   1.936       .  S
C222        O223   1.275       .  A
C222        C710   1.501       .  S
O227       Ni233   1.909       .  S
O227        C248   1.267       .  A
O228       Ni251   1.915       .  S
O228        C237   1.269       .  A
O229       Ni233   1.901       .  S
O229       Ni251   1.904       .  S
O229       Ni245   1.916       .  S
O229        H252   0.966       .  S
C230        O247   1.277       .  A
C230        O239   1.276       .  A
C230        C601   1.482       .  S
O231       Ni250   1.910       .  S
O231        C237   1.267       .  A
O232       Ni250   1.903       .  S
O232        C234   1.267       .  A
Ni233       O236   1.906       .  S
Ni233       O238   1.908       .  S
C234        O244   1.273       .  A
C234        C582   1.506       .  S
O235       Ni251   1.926       .  S
O235        C241   1.276       .  A
O236        C241   1.274       .  A
C237        C534   1.466       .  S
O238        C240   1.266       .  A
O239       Ni250   1.915       .  S
C240        O246   1.277       .  A
C240        C553   1.502       .  S
C241        C614   1.481       .  S
H242        O243   0.967       .  S
O243       Ni251   1.913       .  S
O243       Ni245   1.895       .  S
O243       Ni250   1.896       .  S
O244       Ni245   1.940       .  S
Ni245       O249   1.900       .  S
Ni245       O247   1.924       .  S
O246       Ni251   1.938       .  S
C248        O249   1.264       .  A
C248        C569   1.451       .  S
O253       Ni261   1.939       .  S
O253        C263   1.286   1_565  A
O254       Ni261   1.942   1_455  S
O254        C264   1.285   1_565  A
O255       Ni261   1.935       .  S
O255        C265   1.283   1_565  A
O256       Ni261   1.938   1_455  S
O256        C266   1.285   1_565  A
O257       Ni262   1.941   1_455  S
O257        C266   1.285       .  A
O258       Ni262   1.935       .  S
O258        C265   1.286       .  A
O259       Ni262   1.935   1_455  S
O259        C264   1.285       .  A
O260       Ni262   1.938       .  S
O260        C263   1.284       .  A
Ni261      Ni262   2.382   1_565  S
C263        C319   1.494       .  S
C264        C391   1.495       .  S
C265        C409   1.490       .  S
C266        C269   1.496       .  S
C267        C713   1.492       .  S
C267        N268   1.365       .  A
C267        N272   1.360   1_565  A
N268        C269   1.368   1_565  A
C269        N270   1.368       .  A
N270        C271   1.367       .  A
C271        C518   1.503       .  S
C271        N272   1.360       .  A
O273       Ni279   1.932       .  S
O273        C294   1.275       .  A
O274       Ni297   1.916       .  S
O274        C283   1.272       .  A
O275       Ni279   1.892       .  S
O275       Ni297   1.901       .  S
O275       Ni291   1.906       .  S
O275        H298   0.966       .  S
C276        O293   1.278       .  A
C276        O285   1.276       .  A
C276        C438   1.476       .  S
O277       Ni296   1.924       .  S
O277        C283   1.272       .  A
O278       Ni296   1.910       .  S
O278        C280   1.269       .  A
Ni279       O282   1.919       .  S
Ni279       O284   1.911       .  S
C280        O290   1.280       .  A
C280        C521   1.503       .  S
O281       Ni297   1.914       .  S
O281        C287   1.276       .  A
O282        C287   1.278       .  A
C283        C470   1.496       .  S
O284        C286   1.269       .  A
O285       Ni296   1.913       .  S
C286        O292   1.280       .  A
C286        C454   1.501       .  S
C287        C489   1.465       .  S
H288        O289   0.967       .  S
O289       Ni297   1.905       .  S
O289       Ni291   1.898       .  S
O289       Ni296   1.891       .  S
O290       Ni291   1.958       .  S
Ni291       O295   1.911       .  S
Ni291       O293   1.921       .  S
O292       Ni297   1.957       .  S
C294        O295   1.271       .  A
C294        C505   1.493       .  S
C299        C617   1.483       .  S
C299        N300   1.355       .  A
C299        N304   1.360   1_655  A
N300        C301   1.354   1_655  A
C301        N302   1.356       .  A
N302        C303   1.360       .  A
C303        C502   1.488       .  S
C303        N304   1.362       .  A
C305        C486   1.467       .  S
C305        N306   1.355       .  A
C305        N310   1.355   1_554  A
N306        C307   1.358   1_554  A
C307        N308   1.355       .  A
N308        C309   1.353       .  A
C309        C905   1.462       .  S
C309        N310   1.356       .  A
C311        C598   1.489       .  S
C311        N312   1.355       .  A
C311        N316   1.358       .  A
N312        C313   1.356       .  A
C313        N314   1.360       .  A
N314        C315   1.363       .  A
C315        C473   1.494       .  S
C315        N316   1.359       .  A
C317        C790   1.485       .  S
C317        N318   1.362       .  A
C317        N322   1.352   1_565  A
N318        C319   1.365   1_565  A
C319        N320   1.371       .  A
N320        C321   1.369       .  A
C321        C585   1.494       .  S
C321        N322   1.353       .  A
C323        C982   1.482       .  S
C323        N324   1.358       .  A
C323        N328   1.357       .  A
N324        C325   1.357       .  A
C325        N326   1.349   1_556  A
N326        C327   1.347       .  A
C327        C566   1.468       .  S
C327        N328   1.357   1_554  A
C329        C745   1.494       .  S
C329        N330   1.364       .  A
C329        N334   1.351       .  A
N330        C331   1.368       .  A
C331        N332   1.370       .  A
N332        C333   1.367       .  A
C333        C550   1.499       .  S
C333        N334   1.352       .  A
C335        C921   1.488       .  S
C335        N336   1.350       .  A
C335        N340   1.361       .  A
N336        C337   1.350       .  A
C337        N338   1.353       .  A
N338        C339   1.354       .  A
C339        C537   1.492       .  S
C339        N340   1.362       .  A
C341        C694   1.491       .  S
C341        N342   1.358       .  A
C341        N346   1.366       .  A
N342        C343   1.359       .  A
C343        C457   1.502       .  S
C343        N344   1.367       .  A
N344        C345   1.368       .  A
C345        N346   1.368       .  A
C347        C809   1.491       .  S
C347        N348   1.360   1_655  A
C347        N352   1.357       .  A
N348        C349   1.361       .  A
C349        C681   1.495       .  S
C349        N350   1.363       .  A
N350        C351   1.358       .  A
C351        N352   1.356   1_455  A
C353       C1081   1.458       .  S
C353        N354   1.347       .  A
C353        N358   1.350   1_556  A
N354        C355   1.351   1_556  A
C355        N356   1.354       .  A
N356        C357   1.357       .  A
C357        C665   1.464       .  S
C357        N358   1.352       .  A
C359        C774   1.480       .  S
C359        N360   1.350       .  A
C359        N364   1.357       .  A
N360        C361   1.352       .  A
C361        N362   1.360       .  A
N362        C363   1.366       .  A
C363        C649   1.496       .  S
C363        N364   1.360       .  A
C365       C1014   1.457       .  S
C365        N366   1.351       .  A
C365        N370   1.351       .  A
N366        C367   1.352       .  A
C367        N368   1.354       .  A
N368        C369   1.353       .  A
C369        C633   1.467       .  S
C369        N370   1.352       .  A
C371       C1161   1.465       .  S
C371        N372   1.352       .  A
C371        N376   1.359   1_556  A
N372        C373   1.352   1_556  A
C373        N374   1.355       .  A
N374        C375   1.355       .  A
C375        C761   1.482       .  S
C375        N376   1.362       .  A
C377        C886   1.472       .  S
C377        N378   1.355       .  A
C377        N382   1.353       .  A
N378        C379   1.360       .  A
C379        N380   1.359       .  A
N380        C381   1.355       .  A
C381        C441   1.471       .  S
C381        N382   1.353       .  A
C383       C1001   1.493       .  S
C383        N384   1.359       .  A
C383        N388   1.356   1_655  A
N384        C385   1.358   1_655  A
C385        N386   1.359       .  A
N386        C387   1.360       .  A
C387        C873   1.487       .  S
C387        N388   1.358       .  A
C389       C1097   1.490       .  S
C389        N390   1.367       .  A
C389        N394   1.358   1_565  A
N390        C391   1.369   1_565  A
C391        N392   1.367       .  A
N392        C393   1.364       .  A
C393        C854   1.500       .  S
C393        N394   1.357       .  A
C395        C969   1.492       .  S
C395        N396   1.363       .  A
C395        N400   1.355       .  A
N396        C397   1.362       .  A
C397        N398   1.356       .  A
N398        C399   1.356       .  A
C399        C841   1.486       .  S
C399        N400   1.357       .  A
C401       C1065   1.495       .  S
C401        N402   1.364       .  A
C401        N406   1.358       .  A
N402        C403   1.367       .  A
C403        N404   1.368       .  A
N404        C405   1.367       .  A
C405        C825   1.514       .  S
C405        N406   1.359       .  A
C407       C1174   1.509       .  S
C407        N408   1.369       .  A
C407        N412   1.356   1_565  A
N408        C409   1.371   1_565  A
C409        N410   1.364       .  A
N410        C411   1.361       .  A
C411        C953   1.486       .  S
C411        N412   1.353       .  A
C413       C1193   1.478       .  S
C413        N414   1.352       .  A
C413        N418   1.357   1_655  A
N414        C415   1.352   1_655  A
C415        N416   1.358       .  A
N416        C417   1.362       .  A
C417       C1046   1.501       .  S
C417        N418   1.363       .  A
C419       C1145   1.486       .  S
C419        N420   1.358       .  A
C419        N424   1.354       .  A
N420        C421   1.360       .  A
C421       C1033   1.498       .  S
C421        N422   1.365       .  A
N422        C423   1.359       .  A
C423        N424   1.354       .  A
C425       C1129   1.484       .  S
C425        N426   1.363       .  A
C425        N430   1.352       .  A
N426        C427   1.368       .  A
C427        N428   1.372       .  A
N428        C429   1.370       .  A
C429        C937   1.503       .  S
C429        N430   1.354       .  A
C431       C1113   1.493       .  S
C431        N432   1.355       .  A
C431        N436   1.362       .  A
N432        C433   1.356       .  A
C433        N434   1.353       .  A
N434        C435   1.352       .  A
C435        C729   1.490       .  S
C435        N436   1.362       .  A
C437        C438   1.406       .  A
C437        C442   1.405       .  A
C437        H444   1.083       .  S
C438        C439   1.415       .  A
C439        C440   1.397       .  A
C439        C446   1.509       .  S
C440        C441   1.401       .  A
C440        H445   1.085       .  S
C441        C442   1.412       .  A
C442        C443   1.506       .  S
C443        H447   1.111       .  S
C443        H448   1.110       .  S
C443        H449   1.110       .  S
C446        H450   1.110       .  S
C446        H451   1.108       .  S
C446        H452   1.111       .  S
C453        C454   1.404       .  A
C453        C458   1.413       .  A
C453        H460   1.084       .  S
C454        C455   1.423       .  A
C455        C456   1.411       .  A
C455        C462   1.509       .  S
C456        C457   1.404       .  A
C456        H461   1.084       .  S
C457        C458   1.422       .  A
C458        C459   1.507       .  S
C459        H463   1.111       .  S
C459        H464   1.109       .  S
C459        H465   1.110       .  S
C462        H466   1.109       .  S
C462        H467   1.109       .  S
C462        H468   1.111       .  S
C469        C470   1.410       .  A
C469        C474   1.403       .  A
C469        H476   1.083       .  S
C470        C471   1.417       .  A
C471        C472   1.407       .  A
C471        C478   1.508       .  S
C472        C473   1.410       .  A
C472        H477   1.084       .  S
C473        C474   1.416       .  A
C474        C475   1.509       .  S
C475        H479   1.110       .  S
C475        H480   1.111       .  S
C475        H481   1.110       .  S
C478        H482   1.110       .  S
C478        H483   1.110       .  S
C478        H484   1.111       .  S
C485        C486   1.401       .  A
C485        C490   1.401       .  A
C485        H492   1.085       .  S
C486        C487   1.410       .  A
C487        C488   1.400       .  A
C487        C494   1.505       .  S
C488        C489   1.401       .  A
C488        H493   1.085       .  S
C489        C490   1.415       .  A
C490        C491   1.509       .  S
C491        H495   1.110       .  S
C491        H496   1.106       .  S
C491        H497   1.110       .  S
C494        H498   1.110       .  S
C494        H499   1.105       .  S
C494        H500   1.111       .  S
C501        C502   1.406       .  A
C501        C506   1.407       .  A
C501        H508   1.084       .  S
C502        C503   1.417       .  A
C503        C504   1.402       .  A
C503        C510   1.510       .  S
C504        C505   1.407       .  A
C504        H509   1.084       .  S
C505        C506   1.419       .  A
C506        C507   1.507       .  S
C507        H511   1.111       .  S
C507        H512   1.110       .  S
C507        H513   1.110       .  S
C510        H514   1.109       .  S
C510        H515   1.110       .  S
C510        H516   1.111       .  S
C517        C518   1.410       .  A
C517        C522   1.415       .  A
C517        H524   1.084       .  S
C518        C519   1.417       .  A
C519        C520   1.412       .  A
C519        C526   1.508       .  S
C520        C521   1.410       .  A
C520        H525   1.084       .  S
C521        C522   1.416       .  A
C522        C523   1.506       .  S
C523        H527   1.111       .  S
C523        H528   1.110       .  S
C523        H529   1.110       .  S
C526        H530   1.111       .  S
C526        H531   1.110       .  S
C526        H532   1.111       .  S
C533        C534   1.397       .  A
C533        C538   1.405       .  A
C533        H540   1.083       .  S
C534        C535   1.409       .  A
C535        C536   1.397       .  A
C535        C542   1.509       .  S
C536        C537   1.407       .  A
C536        H541   1.083       .  S
C537        C538   1.426       .  A
C538        C539   1.509       .  S
C539        H543   1.111       .  S
C539        H544   1.109       .  S
C539        H545   1.111       .  S
C542        H546   1.109       .  S
C542        H547   1.110       .  S
C542        H548   1.111       .  S
C549        C550   1.405       .  A
C549        C554   1.413       .  A
C549        H556   1.084       .  S
C550        C551   1.423       .  A
C551        C552   1.402       .  A
C551        C558   1.509       .  S
C552        C553   1.402       .  A
C552        H557   1.084       .  S
C553        C554   1.427       .  A
C554        C555   1.509       .  S
C555        H559   1.111       .  S
C555        H560   1.111       .  S
C555        H561   1.109       .  S
C558        H562   1.110       .  S
C558        H563   1.108       .  S
C558        H564   1.111       .  S
C565        C566   1.403       .  A
C565        C570   1.397       .  A
C565        H572   1.084       .  S
C566        C567   1.418       .  A
C567        C568   1.397       .  A
C567        C574   1.509       .  S
C568        C569   1.397       .  A
C568        H573   1.084       .  S
C569        C570   1.406       .  A
C570        C571   1.507       .  S
C571        H575   1.111       .  S
C571        H576   1.110       .  S
C571        H577   1.110       .  S
C574        H578   1.110       .  S
C574        H579   1.110       .  S
C574        H580   1.111       .  S
C581        C582   1.414       .  A
C581        C586   1.407       .  A
C581        H588   1.083       .  S
C582        C583   1.422       .  A
C583        C584   1.410       .  A
C583        C590   1.509       .  S
C584        C585   1.409       .  A
C584        H589   1.084       .  S
C585        C586   1.411       .  A
C586        C587   1.507       .  S
C587        H591   1.111       .  S
C587        H592   1.109       .  S
C587        H593   1.111       .  S
C590        H594   1.110       .  S
C590        H595   1.110       .  S
C590        H596   1.111       .  S
C597        C598   1.409       .  A
C597        C602   1.405       .  A
C597        H604   1.084       .  S
C598        C599   1.419       .  A
C599        C600   1.401       .  A
C599        C606   1.510       .  S
C600        C601   1.404       .  A
C600        H605   1.084       .  S
C601        C602   1.413       .  A
C602        C603   1.507       .  S
C603        H607   1.111       .  S
C603        H608   1.109       .  S
C603        H609   1.110       .  S
C606        H610   1.110       .  S
C606        H611   1.110       .  S
C606        H612   1.111       .  S
C613        C614   1.402       .  A
C613        C618   1.397       .  A
C613        H620   1.085       .  S
C614        C615   1.414       .  A
C615        C616   1.408       .  A
C615        C622   1.506       .  S
C616        C617   1.407       .  A
C616        H621   1.084       .  S
C617        C618   1.417       .  A
C618        C619   1.510       .  S
C619        H623   1.111       .  S
C619        H624   1.110       .  S
C619        H625   1.110       .  S
C622        H626   1.110       .  S
C622        H627   1.109       .  S
C622        H628   1.111       .  S
C629        C630   1.404       .  A
C629        C634   1.395       .  A
C629        H636   1.084       .  S
C630        C631   1.416       .  A
C631        C632   1.395       .  A
C631        C638   1.511       .  S
C632        C633   1.402       .  A
C632        H637   1.084       .  S
C633        C634   1.414       .  A
C634        C635   1.509       .  S
C635        H639   1.111       .  S
C635        H640   1.109       .  S
C635        H641   1.111       .  S
C638        H642   1.110       .  S
C638        H643   1.111       .  S
C638        H644   1.111       .  S
C645        C646   1.403       .  A
C645        C650   1.405       .  A
C645        H652   1.084       .  S
C646        C647   1.420       .  A
C647        C648   1.404       .  A
C647        C654   1.511       .  S
C648        C649   1.406       .  A
C648        H653   1.083       .  S
C649        C650   1.423       .  A
C650        C651   1.509       .  S
C651        H655   1.111       .  S
C651        H656   1.110       .  S
C651        H657   1.109       .  S
C654        H658   1.110       .  S
C654        H659   1.109       .  S
C654        H660   1.111       .  S
C661        C662   1.402       .  A
C661        C666   1.394       .  A
C661        H668   1.084       .  S
C662        C663   1.415       .  A
C663        C664   1.397       .  A
C663        C670   1.510       .  S
C664        C665   1.402       .  A
C664        H669   1.084       .  S
C665        C666   1.413       .  A
C666        C667   1.510       .  S
C667        H671   1.111       .  S
C667        H672   1.110       .  S
C667        H673   1.108       .  S
C670        H674   1.111       .  S
C670        H675   1.109       .  S
C670        H676   1.111       .  S
C677        C678   1.406       .  A
C677        C682   1.408       .  A
C677        H684   1.084       .  S
C678        C679   1.423       .  A
C679        C680   1.404       .  A
C679        C686   1.510       .  S
C680        C681   1.405       .  A
C680        H685   1.084       .  S
C681        C682   1.419       .  A
C682        C683   1.507       .  S
C683        H687   1.111       .  S
C683        H688   1.108       .  S
C683        H689   1.110       .  S
C686        H690   1.109       .  S
C686        H691   1.109       .  S
C686        H692   1.111       .  S
C693        C694   1.402       .  A
C693        C698   1.410       .  A
C693        H700   1.084       .  S
C694        C695   1.416       .  A
C695        C696   1.414       .  A
C695        C702   1.506       .  S
C696        C697   1.405       .  A
C696        H701   1.084       .  S
C697        C698   1.416       .  A
C698        C699   1.506       .  S
C699        H703   1.111       .  S
C699        H704   1.110       .  S
C699        H705   1.108       .  S
C702        H706   1.110       .  S
C702        H707   1.109       .  S
C702        H708   1.111       .  S
C709        C710   1.408       .  A
C709        C714   1.406       .  A
C709        H716   1.084       .  S
C710        C711   1.419       .  A
C711        C712   1.418       .  A
C711        C718   1.505       .  S
C712        C713   1.407       .  A
C712        H717   1.084       .  S
C713        C714   1.412       .  A
C714        C715   1.508       .  S
C715        H719   1.111       .  S
C715        H720   1.111       .  S
C715        H721   1.109       .  S
C718        H722   1.110       .  S
C718        H723   1.110       .  S
C718        H724   1.111       .  S
C725        C726   1.397       .  A
C725        C730   1.406       .  A
C725        H732   1.085       .  S
C726        C727   1.408       .  A
C727        C728   1.398       .  A
C727        C734   1.508       .  S
C728        C729   1.405       .  A
C728        H733   1.084       .  S
C729        C730   1.427       .  A
C730        C731   1.509       .  S
C731        H735   1.111       .  S
C731        H736   1.110       .  S
C731        H737   1.110       .  S
C734        H738   1.110       .  S
C734        H739   1.109       .  S
C734        H740   1.111       .  S
C741        C742   1.416       .  A
C741        C746   1.410       .  A
C741        H748   1.083       .  S
C742        C743   1.420       .  A
C743        C744   1.408       .  A
C743        C750   1.509       .  S
C744        C745   1.407       .  A
C744        H749   1.083       .  S
C745        C746   1.411       .  A
C746        C747   1.507       .  S
C747        H751   1.111       .  S
C747        H752   1.110       .  S
C747        H753   1.110       .  S
C750        H754   1.110       .  S
C750        H755   1.110       .  S
C750        H756   1.111       .  S
C757        C758   1.398       .  A
C757        C762   1.404       .  A
C757        H764   1.084       .  S
C758        C759   1.409       .  A
C759        C760   1.401       .  A
C759        C766   1.507       .  S
C760        C761   1.404       .  A
C760        H765   1.084       .  S
C761        C762   1.422       .  A
C762        C763   1.508       .  S
C763        H767   1.111       .  S
C763        H768   1.110       .  S
C763        H769   1.110       .  S
C766        H770   1.110       .  S
C766        H771   1.111       .  S
C766        H772   1.111       .  S
C773        C774   1.405       .  A
C773        C778   1.405       .  A
C773        H780   1.084       .  S
C774        C775   1.417       .  A
C775        C776   1.399       .  A
C775        C782   1.511       .  S
C776        C777   1.406       .  A
C776        H781   1.084       .  S
C777        C778   1.416       .  A
C778        C779   1.507       .  S
C779        H783   1.111       .  S
C779        H784   1.110       .  S
C779        H785   1.109       .  S
C782        H786   1.110       .  S
C782        H787   1.109       .  S
C782        H788   1.111       .  S
C789        C790   1.404       .  A
C789        C794   1.407       .  A
C789        H796   1.084       .  S
C790        C791   1.410       .  A
C791        C792   1.407       .  A
C791        C798   1.508       .  S
C792        C793   1.414       .  A
C792        H797   1.083       .  S
C793        C794   1.422       .  A
C794        C795   1.509       .  S
C795        H799   1.111       .  S
C795        H800   1.110       .  S
C795        H801   1.110       .  S
C798        H802   1.111       .  S
C798        H803   1.109       .  S
C798        H804   1.111       .  S
C805        C806   1.405       .  A
C805        C810   1.406       .  A
C805        H812   1.085       .  S
C806        C807   1.416       .  A
C807        C808   1.402       .  A
C807        C814   1.510       .  S
C808        C809   1.407       .  A
C808        H813   1.084       .  S
C809        C810   1.420       .  A
C810        C811   1.508       .  S
C811        H815   1.111       .  S
C811        H816   1.110       .  S
C811        H817   1.106       .  S
C814        H818   1.108       .  S
C814        H819   1.111       .  S
C814        H820   1.111       .  S
C821        C822   1.404       .  A
C821        C826   1.413       .  A
C821        H828   1.084       .  S
C822        C823   1.408       .  A
C823        C824   1.409       .  A
C823        C830   1.508       .  S
C824        C825   1.416       .  A
C824        H829   1.083       .  S
C825        C826   1.424       .  A
C826        C827   1.507       .  S
C827        H831   1.111       .  S
C827        H832   1.110       .  S
C827        H833   1.110       .  S
C830        H834   1.111       .  S
C830        H835   1.110       .  S
C830        H836   1.111       .  S
C837        C838   1.404       .  A
C837        C842   1.403       .  A
C837        H844   1.084       .  S
C838        C839   1.412       .  A
C839        C840   1.401       .  A
C839        C846   1.508       .  S
C840        C841   1.407       .  A
C840        H845   1.084       .  S
C841        C842   1.419       .  A
C842        C843   1.509       .  S
C843        H847   1.111       .  S
C843        H848   1.111       .  S
C843        H849   1.109       .  S
C846        H850   1.110       .  S
C846        H851   1.110       .  S
C846        H852   1.111       .  S
C853        C854   1.412       .  A
C853        C858   1.413       .  A
C853        H860   1.084       .  S
C854        C855   1.417       .  A
C855        C856   1.409       .  A
C855        C862   1.508       .  S
C856        C857   1.407       .  A
C856        H861   1.084       .  S
C857        C858   1.413       .  A
C858        C859   1.506       .  S
C859        H863   1.111       .  S
C859        H864   1.110       .  S
C859        H865   1.111       .  S
C862        H866   1.110       .  S
C862        H867   1.110       .  S
C862        H868   1.111       .  S
C869        C870   1.409       .  A
C869        C874   1.402       .  A
C869        H876   1.084       .  S
C870        C871   1.417       .  A
C871        C872   1.406       .  A
C871        C878   1.508       .  S
C872        C873   1.407       .  A
C872        H877   1.084       .  S
C873        C874   1.415       .  A
C874        C875   1.509       .  S
C875        H879   1.111       .  S
C875        H880   1.110       .  S
C875        H881   1.110       .  S
C878        H882   1.109       .  S
C878        H883   1.110       .  S
C878        H884   1.111       .  S
C885        C886   1.402       .  A
C885        C890   1.397       .  A
C885        H892   1.085       .  S
C886        C887   1.413       .  A
C887        C888   1.404       .  A
C887        C894   1.506       .  S
C888        C889   1.404       .  A
C888        H893   1.084       .  S
C889        C890   1.413       .  A
C890        C891   1.509       .  S
C891        H895   1.111       .  S
C891        H896   1.108       .  S
C891        H897   1.111       .  S
C894        H898   1.110       .  S
C894        H899   1.110       .  S
C894        H900   1.111       .  S
C901        C902   1.401       .  A
C901        C906   1.397       .  A
C901        H908   1.084       .  S
C902        C903   1.413       .  A
C903        C904   1.401       .  A
C903        C910   1.508       .  S
C904        C905   1.402       .  A
C904        H909   1.084       .  S
C905        C906   1.408       .  A
C906        C907   1.505       .  S
C907        H911   1.111       .  S
C907        H912   1.105       .  S
C907        H913   1.110       .  S
C910        H914   1.110       .  S
C910        H915   1.110       .  S
C910        H916   1.111       .  S
C917        C918   1.395       .  A
C917        C922   1.403       .  A
C917        H924   1.085       .  S
C918        C919   1.408       .  A
C919        C920   1.396       .  A
C919        C926   1.509       .  S
C920        C921   1.406       .  A
C920        H925   1.083       .  S
C921        C922   1.427       .  A
C922        C923   1.509       .  S
C923        H927   1.111       .  S
C923        H928   1.111       .  S
C923        H929   1.109       .  S
C926        H930   1.110       .  S
C926        H931   1.109       .  S
C926        H932   1.111       .  S
C933        C934   1.405       .  A
C933        C938   1.405       .  A
C933        H940   1.084       .  S
C934        C935   1.425       .  A
C935        C936   1.414       .  A
C935        C942   1.508       .  S
C936        C937   1.405       .  A
C936        H941   1.084       .  S
C937        C938   1.424       .  A
C938        C939   1.509       .  S
C939        H943   1.111       .  S
C939        H944   1.109       .  S
C939        H945   1.109       .  S
C942        H946   1.110       .  S
C942        H947   1.111       .  S
C942        H948   1.111       .  S
C949        C950   1.408       .  A
C949        C954   1.405       .  A
C949        H956   1.084       .  S
C950        C951   1.429       .  A
C951        C952   1.408       .  A
C951        C958   1.510       .  S
C952        C953   1.400       .  A
C952        H957   1.084       .  S
C953        C954   1.416       .  A
C954        C955   1.508       .  S
C955        H959   1.111       .  S
C955        H960   1.108       .  S
C955        H961   1.110       .  S
C958        H962   1.110       .  S
C958        H963   1.110       .  S
C958        H964   1.111       .  S
C965        C966   1.400       .  A
C965        C970   1.405       .  A
C965        H972   1.084       .  S
C966        C967   1.417       .  A
C967        C968   1.404       .  A
C967        C974   1.510       .  S
C968        C969   1.405       .  A
C968        H973   1.084       .  S
C969        C970   1.423       .  A
C970        C971   1.509       .  S
C971        H975   1.111       .  S
C971        H976   1.110       .  S
C971        H977   1.109       .  S
C974        H978   1.111       .  S
C974        H979   1.109       .  S
C974        H980   1.111       .  S
C981        C982   1.407       .  A
C981        C986   1.401       .  A
C981        H988   1.084       .  S
C982        C983   1.420       .  A
C983        C984   1.401       .  A
C983        C990   1.509       .  S
C984        C985   1.399       .  A
C984        H989   1.085       .  S
C985        C986   1.407       .  A
C986        C987   1.507       .  S
C987        H991   1.111       .  S
C987        H992   1.110       .  S
C987        H993   1.110       .  S
C990        H994   1.110       .  S
C990        H995   1.109       .  S
C990        H996   1.111       .  S
C997        C998   1.402       .  A
C997       C1002   1.406       .  A
C997       H1004   1.084       .  S
C998        C999   1.414       .  A
C999       C1000   1.401       .  A
C999       C1006   1.509       .  S
C1000      C1001   1.407       .  A
C1000      H1005   1.084       .  S
C1001      C1002   1.422       .  A
C1002      C1003   1.509       .  S
C1003      H1007   1.111       .  S
C1003      H1008   1.109       .  S
C1003      H1009   1.110       .  S
C1006      H1010   1.110       .  S
C1006      H1011   1.108       .  S
C1006      H1012   1.111       .  S
C1013      C1014   1.399       .  A
C1013      C1018   1.398       .  A
C1013      H1020   1.085       .  S
C1014      C1015   1.408       .  A
C1015      C1016   1.391       .  A
C1015      C1022   1.510       .  S
C1016      C1017   1.408       .  A
C1016      H1021   1.083       .  S
C1017      C1018   1.421       .  A
C1018      C1019   1.510       .  S
C1019      H1023   1.111       .  S
C1019      H1024   1.110       .  S
C1019      H1025   1.111       .  S
C1022      H1026   1.110       .  S
C1022      H1027   1.110       .  S
C1022      H1028   1.111       .  S
C1029      C1030   1.404       .  A
C1029      C1034   1.407       .  A
C1029      H1036   1.084       .  S
C1030      C1031   1.421       .  A
C1031      C1032   1.404       .  A
C1031      C1038   1.511       .  S
C1032      C1033   1.406       .  A
C1032      H1037   1.083       .  S
C1033      C1034   1.423       .  A
C1034      C1035   1.509       .  S
C1035      H1039   1.111       .  S
C1035      H1040   1.109       .  S
C1035      H1041   1.110       .  S
C1038      H1042   1.109       .  S
C1038      H1043   1.110       .  S
C1038      H1044   1.111       .  S
C1045      C1046   1.410       .  A
C1045      C1050   1.402       .  A
C1045      H1052   1.083       .  S
C1046      C1047   1.424       .  A
C1047      C1048   1.406       .  A
C1047      C1054   1.509       .  S
C1048      C1049   1.404       .  A
C1048      H1053   1.084       .  S
C1049      C1050   1.414       .  A
C1050      C1051   1.508       .  S
C1051      H1055   1.111       .  S
C1051      H1056   1.111       .  S
C1051      H1057   1.109       .  S
C1054      H1058   1.110       .  S
C1054      H1059   1.110       .  S
C1054      H1060   1.111       .  S
C1061      C1062   1.405       .  A
C1061      C1066   1.413       .  A
C1061      H1068   1.080       .  S
C1062      C1063   1.412       .  A
C1063      C1064   1.407       .  A
C1063      C1070   1.507       .  S
C1064      C1065   1.407       .  A
C1064      H1069   1.084       .  S
C1065      C1066   1.417       .  A
C1066      C1067   1.506       .  S
C1067      H1071   1.111       .  S
C1067      H1072   1.110       .  S
C1067      H1073   1.110       .  S
C1070      H1074   1.110       .  S
C1070      H1075   1.110       .  S
C1070      H1076   1.111       .  S
C1077      C1078   1.406       .  A
C1077      C1082   1.395       .  A
C1077      H1084   1.084       .  S
C1078      C1079   1.423       .  A
C1079      C1080   1.395       .  A
C1079      C1086   1.507       .  S
C1080      C1081   1.395       .  A
C1080      H1085   1.085       .  S
C1081      C1082   1.411       .  A
C1082      C1083   1.510       .  S
C1083      H1087   1.111       .  S
C1083      H1088   1.110       .  S
C1083      H1089   1.111       .  S
C1086      H1090   1.110       .  S
C1086      H1091   1.110       .  S
C1086      H1092   1.111       .  S
C1093      C1094   1.406       .  A
C1093      C1098   1.404       .  A
C1093      H1100   1.084       .  S
C1094      C1095   1.420       .  A
C1095      C1096   1.418       .  A
C1095      C1102   1.504       .  S
C1096      C1097   1.406       .  A
C1096      H1101   1.084       .  S
C1097      C1098   1.413       .  A
C1098      C1099   1.508       .  S
C1099      H1103   1.111       .  S
C1099      H1104   1.109       .  S
C1099      H1105   1.110       .  S
C1102      H1106   1.110       .  S
C1102      H1107   1.109       .  S
C1102      H1108   1.111       .  S
C1109      C1110   1.397       .  A
C1109      C1114   1.407       .  A
C1109      H1116   1.082       .  S
C1110      C1111   1.411       .  A
C1111      C1112   1.401       .  A
C1111      C1118   1.509       .  S
C1112      C1113   1.407       .  A
C1112      H1117   1.084       .  S
C1113      C1114   1.425       .  A
C1114      C1115   1.508       .  S
C1115      H1119   1.111       .  S
C1115      H1120   1.110       .  S
C1115      H1121   1.110       .  S
C1118      H1122   1.109       .  S
C1118      H1123   1.110       .  S
C1118      H1124   1.111       .  S
C1125      C1126   1.407       .  A
C1125      C1130   1.407       .  A
C1125      H1132   1.084       .  S
C1126      C1127   1.429       .  A
C1127      C1128   1.411       .  A
C1127      C1134   1.509       .  S
C1128      C1129   1.400       .  A
C1128      H1133   1.084       .  S
C1129      C1130   1.412       .  A
C1130      C1131   1.505       .  S
C1131      H1135   1.111       .  S
C1131      H1136   1.110       .  S
C1131      H1137   1.106       .  S
C1134      H1138   1.110       .  S
C1134      H1139   1.110       .  S
C1134      H1140   1.111       .  S
C1141      C1142   1.404       .  A
C1141      C1146   1.400       .  A
C1141      H1148   1.084       .  S
C1142      C1143   1.416       .  A
C1143      C1144   1.407       .  A
C1143      C1150   1.505       .  S
C1144      C1145   1.406       .  A
C1144      H1149   1.084       .  S
C1145      C1146   1.418       .  A
C1146      C1147   1.510       .  S
C1147      H1151   1.111       .  S
C1147      H1152   1.109       .  S
C1147      H1153   1.111       .  S
C1150      H1154   1.109       .  S
C1150      H1155   1.111       .  S
C1150      H1156   1.111       .  S
C1157      C1158   1.402       .  A
C1157      C1162   1.405       .  A
C1157      H1164   1.084       .  S
C1158      C1159   1.413       .  A
C1159      C1160   1.397       .  A
C1159      C1166   1.509       .  S
C1160      C1161   1.399       .  A
C1160      H1165   1.085       .  S
C1161      C1162   1.410       .  A
C1162      C1163   1.506       .  S
C1163      H1167   1.111       .  S
C1163      H1168   1.110       .  S
C1163      H1169   1.110       .  S
C1166      H1170   1.110       .  S
C1166      H1171   1.106       .  S
C1166      H1172   1.111       .  S
C1173      C1174   1.412       .  A
C1173      C1178   1.408       .  A
C1173      H1180   1.083       .  S
C1174      C1175   1.417       .  A
C1175      C1176   1.414       .  A
C1175      C1182   1.507       .  S
C1176      C1177   1.415       .  A
C1176      H1181   1.083       .  S
C1177      C1178   1.419       .  A
C1178      C1179   1.509       .  S
C1179      H1183   1.111       .  S
C1179      H1184   1.110       .  S
C1179      H1185   1.110       .  S
C1182      H1186   1.110       .  S
C1182      H1187   1.110       .  S
C1182      H1188   1.111       .  S
C1189      C1190   1.404       .  A
C1189      C1194   1.397       .  A
C1189      H1196   1.085       .  S
C1190      C1191   1.414       .  A
C1191      C1192   1.407       .  A
C1191      C1198   1.505       .  S
C1192      C1193   1.406       .  A
C1192      H1197   1.084       .  S
C1193      C1194   1.415       .  A
C1194      C1195   1.510       .  S
C1195      H1199   1.111       .  S
C1195      H1200   1.110       .  S
C1195      H1201   1.109       .  S
C1198      H1202   1.110       .  S
C1198      H1203   1.108       .  S
C1198      H1204   1.111       .  S
