geometry optimzed in LAMMPS
_audit_creation_date              2020-11-30 
_audit_creation_method            'lammps2cif' 
_symmetry_space_group_name_H-M    'P1' 
_symmetry_Int_Tables_number       1 
_symmetry_cell_setting            triclinic 
loop_ 
_symmetry_equiv_pos_as_xyz 
  x,y,z 
_cell_length_a                    27.85840979252374 
_cell_length_b                    27.892083012013337 
_cell_length_c                    27.62058317744462 
_cell_angle_alpha                 95.7456691798414 
_cell_angle_beta                  94.52211646980558 
_cell_angle_gamma                 87.70175641889752 
loop_ 
_atom_site_label 
_atom_site_type_symbol 
_atom_site_fract_x 
_atom_site_fract_y 
_atom_site_fract_z 
_atom_site_charge 
C1          C  0.72925254  0.27882982  0.23944394     0.03950
C2          C  0.73623552  0.23252882  0.25490632    -0.12200
C3          C  0.77054015  0.22449471  0.29300764     0.01450
C4          C  0.80324399  0.25982059  0.31022658    -0.10720
C5          C  0.79849693  0.30510253  0.29304631     0.03940
C6          C  0.76105996  0.31481672  0.25821021    -0.10140
H7          H  0.71079604  0.20474708  0.24230760     0.09540
H8          H  0.82865468  0.25395701  0.34106586     0.07070
H9          H  0.75560907  0.35102343  0.24742958     0.06920
C10         C  0.22350815  0.85858513  0.22918811     0.03950
C11         C  0.18197256  0.83261413  0.22391547    -0.12200
C12         C  0.14509862  0.84521288  0.25426091     0.01450
C13         C  0.14727013  0.88773035  0.28565535    -0.10720
C14         C  0.18913073  0.91444986  0.28998652     0.03940
C15         C  0.22733061  0.90003748  0.26149219    -0.10140
H16         H  0.18169868  0.79832174  0.20147863     0.09540
H17         H  0.11955020  0.89647124  0.31084658     0.07070
H18         H  0.26096070  0.91880331  0.26705429     0.06920
C19         C  0.25506047  0.31540814  0.85498490     0.03950
C20         C  0.25599091  0.27469472  0.82169563    -0.12200
C21         C  0.22911121  0.27417532  0.77714835     0.01450
C22         C  0.20209768  0.31506944  0.76458271    -0.10720
C23         C  0.20130589  0.35649135  0.79766929     0.03940
C24         C  0.22781666  0.35648237  0.84311108    -0.10140
H25         H  0.27687583  0.24276711  0.83095070     0.09540
H26         H  0.18112374  0.31424945  0.72976958     0.07070
H27         H  0.22672529  0.38802979  0.86937961     0.06920
O28         O  0.84560679  0.07848688  0.61485103    -0.80070
O29         O  0.60800581  0.08067549  0.58974455    -0.64760
O30         O  0.74766644  0.05144517  0.59082732    -1.11360
C31         C  0.73619364  0.10404635  0.43970232     1.06820
O32         O  0.58978990  0.07533950  0.50971749    -0.77970
O33         O  0.66773432  0.01162760  0.49497894    -0.65550
Ni34       Ni  0.78631096  0.07457905  0.64742700     1.34870
C35         C  0.71071941  0.99421002  0.49520377     0.85560
O36         O  0.67323535  0.03356445  0.64544674    -0.78500
O37         O  0.73352541  0.07046790  0.68756201    -0.88780
C38         C  0.57645871  0.07949231  0.55312247     0.85130
O39         O  0.76638382  0.13782866  0.63336743    -0.66980
O40         O  0.70279035  0.07402955  0.43638593    -0.86270
C41         C  0.72394913  0.15539017  0.63738578     0.85960
C42         C  0.70285954  0.03749820  0.68247058     1.07530
H43         H  0.68293000  0.13397268  0.54056854     0.39330
O44         O  0.68826231  0.09949586  0.53496519    -1.08930
O45         O  0.74703274  0.02126150  0.49792022    -0.65580
Ni46       Ni  0.75722687  0.08286688  0.53480915     1.26350
O47         O  0.68719113  0.12868681  0.63052016    -0.65810
O48         O  0.76194888  0.11441657  0.47875846    -0.78100
C49         C  0.85970719  0.07129592  0.57175670     0.85340
O50         O  0.82785797  0.06779270  0.53527954    -0.65280
Ni51       Ni  0.64993839  0.07471770  0.47779668     1.27450
Ni52       Ni  0.67850175  0.06743156  0.59091721     1.26060
H53         H  0.75296800  0.01693816  0.58567023     0.39890
C54         C  0.65134548  0.35579656  0.82267196     0.03950
C55         C  0.65687918  0.32516478  0.78004680    -0.12200
C56         C  0.68889883  0.33625690  0.74623246     0.01450
C57         C  0.71435318  0.37889696  0.75548911    -0.10720
C58         C  0.71103037  0.40740713  0.79984052     0.03940
C59         C  0.67835923  0.39701564  0.83245362    -0.10140
H60         H  0.63844535  0.29132345  0.77476469     0.09540
H61         H  0.73985635  0.38783345  0.73041061     0.07070
H62         H  0.67678822  0.41875183  0.86716430     0.06920
O63         O  0.43097271  0.42559944  0.10960978    -0.80070
O64         O  0.43015412  0.18552894  0.08025753    -0.64760
O65         O  0.45359024  0.32444271  0.11279952    -1.11360
C66         C  0.54239416  0.30284904  0.97584551     1.06820
O67         O  0.50648971  0.16746795  0.06715974    -0.77970
O68         O  0.55963855  0.24718592  0.09022807    -0.65550
Ni69       Ni  0.39984637  0.36791486  0.12555564     1.34870
C70         C  0.56692765  0.29121099  0.10428390     0.85560
O71         O  0.40466946  0.25203493  0.15248908    -0.78500
O72         O  0.36041387  0.31925081  0.14539613    -0.88780
C73         C  0.46498341  0.15390649  0.07519001     0.85130
O74         O  0.37695817  0.35227291  0.05987070    -0.66980
O75         O  0.55424183  0.26302668  0.99312589    -0.86270
C76         C  0.36831567  0.31053775  0.03825549     0.85960
C77         C  0.36642472  0.27705735  0.15891842     1.07530
H78         H  0.45158739  0.25585367  0.01159124     0.39330
O79         O  0.47282521  0.26188994  0.04076872    -1.08930
O80         O  0.54452658  0.32626181  0.08572431    -0.65580
Ni81       Ni  0.48187275  0.33100250  0.05211672     1.26350
O82         O  0.38153716  0.27104717  0.05653053    -0.65810
O83         O  0.50980895  0.33203346  0.99191435    -0.78100
C84         C  0.46508171  0.43624783  0.08469281     0.85340
O85         O  0.48941272  0.40198592  0.06218712    -0.65280
Ni86       Ni  0.52730739  0.21930103  0.03199977     1.27450
Ni87       Ni  0.43969992  0.25594638  0.09679457     1.26060
H88         H  0.47725786  0.32799367  0.14030614     0.39890
O89         O  0.42775436  0.80139455  0.17022699    -0.80070
O90         O  0.55903737  0.84110519  0.02276738    -0.64760
O91         O  0.44774452  0.82482938  0.08628306    -1.11360
C92         C  0.49398678  0.65041168  0.06569627     1.06820
O93         O  0.54395912  0.77585610  0.97320964    -0.77970
O94         O  0.47617525  0.71273369  0.97373258    -0.65550
Ni95       Ni  0.43629719  0.86188575  0.14582113     1.34870
C96         C  0.43538694  0.73264208  0.98056818     0.85560
O97         O  0.48846244  0.90732153  0.05505774    -0.78500
O98         O  0.44551657  0.92411892  0.12110724    -0.88780
C99         C  0.57051087  0.81117696  0.98775621     0.85130
O100        O  0.50005088  0.86133738  0.17556999    -0.66980
O101        O  0.52837420  0.66336859  0.04208638    -0.86270
C102        C  0.54016938  0.85730079  0.15686328     0.85960
C103        C  0.46636771  0.93805085  0.08522865     1.07530
H104        H  0.53953578  0.76251160  0.08841207     0.39330
O105        O  0.51544394  0.76576142  0.06170529    -1.08930
O106        O  0.42279676  0.75048454  0.02199393    -0.65580
Ni107      Ni  0.45602799  0.75414526  0.08562852     1.26350
O108        O  0.54468570  0.84912371  0.11185272    -0.65810
O109        O  0.46352778  0.68254153  0.08293790    -0.78100
C110        C  0.39247535  0.77695253  0.15130742     0.85340
O111        O  0.39676057  0.74942031  0.11263711    -0.65280
Ni112      Ni  0.53638744  0.72169517  0.00957700     1.27450
Ni113      Ni  0.50296077  0.83587229  0.05548665     1.26060
H114        H  0.42033175  0.83184003  0.06440848     0.39890
O115        O  0.03547352  0.57883000  0.92075520    -0.80070
O116        O  0.00888000  0.57907146  0.68291143    -0.64760
O117        O  0.00660138  0.60999490  0.82457456    -1.11360
C118        C  0.86858922  0.52667576  0.81488343     1.06820
O119        O  0.93240463  0.56108071  0.66466940    -0.77970
O120        O  0.90600953  0.62341713  0.74252474    -0.65550
Ni121      Ni  0.06325733  0.60829462  0.86792490     1.34870
C122        C  0.90145866  0.64286967  0.78568479     0.85560
O123        O  0.05518796  0.64037052  0.74971998    -0.78500
O124        O  0.09713121  0.64017799  0.82295343    -0.88780
C125        C  0.97348928  0.56962704  0.65104351     0.85130
O126        O  0.08424352  0.54671189  0.84048792    -0.66980
O127        O  0.86227376  0.54927328  0.77711005    -0.86270
C128        C  0.08274243  0.52762171  0.79668205     0.85960
C129        C  0.08975238  0.65373841  0.78009632     1.07530
H130        H  0.97382849  0.51568695  0.75832959     0.39330
O131        O  0.96144782  0.54835835  0.76391748    -1.08930
O132        O  0.91216909  0.62060571  0.82359138    -0.65580
Ni133      Ni  0.95798614  0.56747643  0.83354433     1.26350
O134        O  0.05831895  0.54440572  0.76087635    -0.65810
O135        O  0.90882195  0.52443749  0.83914790    -0.78100
C136        C  0.99290954  0.58152671  0.93528382     0.85340
O137        O  0.95679955  0.58600933  0.90420809    -0.65280
Ni138      Ni  0.90241704  0.55608330  0.72480847     1.27450
Ni139      Ni  0.00883097  0.59390397  0.75472622     1.26060
H140        H  0.99465356  0.64270174  0.82845237     0.39890
C141        C  0.32951871  0.76659873  0.79940714     0.03950
C142        C  0.28434926  0.74617386  0.79156026    -0.12200
C143        C  0.25164300  0.75962825  0.75421141     0.01450
C144        C  0.26371924  0.79361070  0.72408008    -0.10720
C145        C  0.30861681  0.81492699  0.73205072     0.03940
C146        C  0.34223717  0.80037729  0.76856016    -0.10140
H147        H  0.27326889  0.72178931  0.81651704     0.09540
H148        H  0.23695491  0.80621188  0.69716334     0.07070
H149        H  0.37638481  0.81804176  0.77531739     0.06920
O150        O  0.33740621  0.10608616  0.51653006    -0.80070
O151        O  0.10311289  0.08450688  0.53542249    -0.64760
O152        O  0.24243863  0.11165836  0.55212668    -1.11360
C153        C  0.26688728  0.97264614  0.62631110     1.06820
O154        O  0.10151384  0.03215686  0.59039311    -0.77970
O155        O  0.17811417  0.07373528  0.64587349    -0.65550
Ni156      Ni  0.27318593  0.13217512  0.49901508     1.34870
C157        C  0.21878179  0.09319066  0.65561486     0.85560
O158        O  0.15635224  0.16141634  0.52473783    -0.78500
O159        O  0.21554703  0.16356992  0.47500909    -0.88780
C160        C  0.07896046  0.05953247  0.56147142     0.85130
O161        O  0.25619009  0.07445674  0.46116207    -0.66980
O162        O  0.22571242  0.98620611  0.64033653    -0.86270
C163        C  0.21366410  0.05984151  0.45029364     0.85960
C164        C  0.17605544  0.17983837  0.49133465     1.07530
H165        H  0.19169837  0.01054565  0.53025289     0.39330
O166        O  0.19589777  0.03436326  0.55801618    -1.08930
O167        O  0.25665463  0.07498412  0.63689515    -0.65580
Ni168      Ni  0.26408909  0.04962379  0.57013999     1.26350
O169        O  0.17724970  0.07445519  0.47381291    -0.65810
O170        O  0.28310383  0.98771204  0.58938073    -0.78100
C171        C  0.35869900  0.08563070  0.55183144     0.85340
O172        O  0.33326756  0.06545914  0.58044156    -0.65280
Ni173      Ni  0.16665439  0.01229250  0.61172298     1.27450
Ni174      Ni  0.17376215  0.09789007  0.54190996     1.26060
H175        H  0.24724430  0.13625031  0.57910076     0.39890
C176        C  0.74468316  0.85199623  0.36050107     0.03950
C177        C  0.71388503  0.87089679  0.32407087    -0.12200
C178        C  0.71692734  0.85353206  0.27529815     0.01450
C179        C  0.75496621  0.82275540  0.26138756    -0.10720
C180        C  0.78716586  0.80575785  0.29731985     0.03940
C181        C  0.78079259  0.81843709  0.34677302    -0.10140
H182        H  0.68460751  0.89592424  0.33376387     0.09540
H183        H  0.75722161  0.80913261  0.22343907     0.07070
H184        H  0.80388421  0.80179562  0.37420283     0.06920
C185        C  0.14699711  0.24584500  0.31567030     0.03950
C186        C  0.18292595  0.22370140  0.28705053    -0.12200
C187        C  0.20422654  0.25068975  0.25467052     0.01450
C188        C  0.19128601  0.29981060  0.25391184    -0.10720
C189        C  0.15256427  0.31984635  0.27864271     0.03940
C190        C  0.12730373  0.29061142  0.30536651    -0.10140
H191        H  0.19739680  0.18816409  0.29374856     0.09540
H192        H  0.21240457  0.32251104  0.23476193     0.07070
H193        H  0.09813285  0.30625864  0.32618505     0.06920
O194        O  0.96131708  0.52400146  0.16022624    -0.80070
O195        O  0.98056740  0.54026091  0.40106346    -0.64760
O196        O  0.95014996  0.55276322  0.26131281    -1.11360
C197        C  0.06062204  0.67118708  0.28225368     1.06820
O198        O  0.99186646  0.61754127  0.42414100    -0.77970
O199        O  0.94990921  0.65874194  0.34319748    -0.65550
Ni200      Ni  0.94861114  0.49443254  0.21851998     1.34870
C201        C  0.93815637  0.66613531  0.29904092     0.85560
O202        O  0.91451073  0.50381364  0.33341281    -0.78500
O203        O  0.93309880  0.45549742  0.26823227    -0.88780
C204        C  0.98577273  0.57509103  0.43494746     0.85130
O205        O  0.01520070  0.48598531  0.23601806    -0.66980
O206        O  0.03870063  0.68016544  0.32085890    -0.86270
C207        C  0.03366980  0.48100395  0.27896918     0.85960
C208        C  0.91338555  0.46352050  0.30829759     1.07530
H209        H  0.04719610  0.57148601  0.33134508     0.39330
O210        O  0.01608922  0.58721094  0.32517062    -1.08930
O211        O  0.96057130  0.64757789  0.26294966    -0.65580
Ni212      Ni  0.00368095  0.59217339  0.25527874     1.26350
O213        O  0.01097132  0.49348137  0.31693983    -0.65810
O214        O  0.05658732  0.63249835  0.25414625    -0.78100
C215        C  0.97792549  0.56314328  0.14957657     0.85340
O216        O  0.99252582  0.59529295  0.18364959    -0.65280
Ni217      Ni  0.01391700  0.64495017  0.36808479     1.27450
Ni218      Ni  0.96523454  0.54582650  0.33053157     1.26060
H219        H  0.91994365  0.57025063  0.25665579     0.39890
C220        C  0.72851893  0.84333469  0.87554215     0.03950
C221        C  0.71505723  0.87992487  0.84576853    -0.12200
C222        C  0.74175302  0.88699804  0.80690136     0.01450
C223        C  0.78038860  0.85565408  0.79518849    -0.10720
C224        C  0.79339491  0.81857774  0.82457298     0.03940
C225        C  0.76927070  0.81418213  0.86627186    -0.10140
H226        H  0.68285213  0.90218436  0.85181547     0.09540
H227        H  0.79902939  0.85906541  0.76277160     0.07070
H228        H  0.77950156  0.78519244  0.88877813     0.06920
C229        C  0.08067065  0.45459061  0.28420755    -0.04510
C230        C  0.10590130  0.44084365  0.24232757    -0.01630
C231        C  0.13211893  0.39680649  0.23926447     0.03360
C232        C  0.14051079  0.37215481  0.28156017    -0.04510
C233        C  0.13002873  0.39642157  0.32710656    -0.01620
C234        C  0.09661784  0.43515624  0.32829234     0.03350
C235        C  0.10438127  0.47136158  0.20264472     0.38000
C236        C  0.15017949  0.37966495  0.37274200     0.38000
C237        C  0.07533538  0.44998367  0.37388359     0.36420
C238        C  0.14637519  0.37611858  0.19210342     0.36420
N239        N  0.05755037  0.45990828  0.41014180    -0.38400
N240        N  0.15748352  0.36030207  0.15410779    -0.38400
N241        N  0.16523117  0.36820219  0.41024302    -0.37850
N242        N  0.10410303  0.49646966  0.17170994    -0.37850
C243        C  0.90026582  0.70204666  0.28981789    -0.04510
C244        C  0.85350073  0.68807008  0.27242944    -0.01630
C245        C  0.81635702  0.72328784  0.26950436     0.03360
C246        C  0.82636552  0.77180947  0.28457174    -0.04510
C247        C  0.87396746  0.78620284  0.29644589    -0.01620
C248        C  0.91104719  0.75119433  0.29971272     0.03350
C249        C  0.84253792  0.63770085  0.26039451     0.38000
C250        C  0.88432631  0.83699701  0.30665419     0.38000
C251        C  0.95973587  0.76592691  0.31517105     0.36420
C252        C  0.76768213  0.70933947  0.25310179     0.36420
N253        N  0.99812186  0.77870773  0.32780701    -0.38400
N254        N  0.72915593  0.69781543  0.23932918    -0.38400
N255        N  0.89261417  0.87747978  0.31451369    -0.37850
N256        N  0.83198218  0.59799921  0.25061076    -0.37850
C257        C  0.14723974  0.23701668  0.36740879    -0.04510
C258        C  0.18569252  0.25535547  0.39967814    -0.01630
C259        C  0.18581672  0.25028526  0.44955797     0.03360
C260        C  0.15302884  0.21925249  0.46538607    -0.04510
C261        C  0.11008374  0.20983639  0.43631362    -0.01620
C262        C  0.10679791  0.21928738  0.38682706     0.03350
C263        C  0.22543785  0.27898845  0.38180366     0.38000
C264        C  0.07046282  0.18971285  0.45730798     0.38000
C265        C  0.06356986  0.20832068  0.35562450     0.36420
C266        C  0.22480396  0.26901124  0.48325423     0.36420
N267        N  0.02908764  0.19949495  0.33066122    -0.38400
N268        N  0.25600412  0.28386522  0.50999602    -0.38400
N269        N  0.03839216  0.17502139  0.47481265    -0.37850
N270        N  0.25696246  0.29811820  0.36774048    -0.37850
C271        C  0.31445706  0.85983819  0.70991430    -0.04510
C272        C  0.33020346  0.85844857  0.66259797    -0.01630
C273        C  0.32025868  0.89830282  0.63536398     0.03360
C274        C  0.29567704  0.93950591  0.65652574    -0.04510
C275        C  0.28952050  0.94393654  0.70708948    -0.01620
C276        C  0.29564901  0.90320588  0.73284386     0.03350
C277        C  0.35281365  0.81466343  0.64081265     0.38000
C278        C  0.27356520  0.98960274  0.73187477     0.38000
C279        C  0.27614407  0.90449318  0.78017491     0.36420
C280        C  0.33285190  0.89540086  0.58528466     0.36420
N281        N  0.25906595  0.90620665  0.81718483    -0.38400
N282        N  0.34383887  0.89237452  0.54554026    -0.38400
N283        N  0.26089516  0.02590289  0.75168199    -0.37850
N284        N  0.37092494  0.77966997  0.62358624    -0.37850
C285        C  0.12372195  0.68749760  0.76577829    -0.04510
C286        C  0.13348650  0.72981898  0.79678575    -0.01630
C287        C  0.17321347  0.75683001  0.78984859     0.03360
C288        C  0.20277017  0.74160169  0.75170964    -0.04510
C289        C  0.18958774  0.70293055  0.71719644    -0.01620
C290        C  0.14990990  0.67561330  0.72429715     0.03350
C291        C  0.10371237  0.74456829  0.83689752     0.38000
C292        C  0.21901797  0.68917397  0.67667818     0.38000
C293        C  0.13876585  0.63321906  0.69126332     0.36420
C294        C  0.18560676  0.79830841  0.82395083     0.36420
N295        N  0.13026418  0.59940876  0.66468784    -0.38400
N296        N  0.19532070  0.83105800  0.85160640    -0.38400
N297        N  0.24253922  0.67834728  0.64437165    -0.37850
N298        N  0.08008155  0.75629706  0.86892032    -0.37850
C299        C  0.87798801  0.69107545  0.79147983    -0.04510
C300        C  0.83467493  0.69975884  0.76296586    -0.01630
C301        C  0.80830081  0.74308120  0.77199865     0.03360
C302        C  0.82590674  0.77870509  0.80810549    -0.04510
C303        C  0.87028380  0.77145864  0.83462718    -0.01620
C304        C  0.89593496  0.72727476  0.82723325     0.03350
C305        C  0.81457546  0.66251260  0.72729279     0.38000
C306        C  0.88833221  0.80891138  0.87108005     0.38000
C307        C  0.93965991  0.71949239  0.85785696     0.36420
C308        C  0.76077900  0.74853894  0.74733272     0.36420
N309        N  0.97396273  0.71532801  0.88379080    -0.38400
N310        N  0.72274236  0.75094564  0.72756201    -0.38400
N311        N  0.90262979  0.83881587  0.90009620    -0.37850
N312        N  0.79837081  0.63285511  0.69910453    -0.37850
C313        C  0.98639430  0.57681390  0.98975576    -0.04510
C314        C  0.00464000  0.53542395  0.01201615    -0.01630
C315        C  0.00130212  0.53118312  0.06295950     0.03360
C316        C  0.98125420  0.56909721  0.09462781    -0.04510
C317        C  0.96171281  0.61004548  0.07208334    -0.01620
C318        C  0.96415866  0.61377748  0.02062094     0.03350
C319        C  0.02585761  0.49586608  0.98181469     0.38000
C320        C  0.93639060  0.64737356  0.10132394     0.38000
C321        C  0.94413340  0.65634810  0.99952110     0.36420
C322        C  0.01806320  0.48655283  0.08234157     0.36420
N323        N  0.92799763  0.69039510  0.98275947    -0.38400
N324        N  0.03075729  0.45038226  0.09708109    -0.38400
N325        N  0.91603475  0.67709448  0.12473841    -0.37850
N326        N  0.04269078  0.46428887  0.95765210    -0.37850
C327        C  0.97779481  0.56961489  0.59534707    -0.04510
C328        C  0.93888021  0.58780723  0.56472762    -0.01630
C329        C  0.94079566  0.58637123  0.51292569     0.03360
C330        C  0.98221109  0.56861238  0.48934370    -0.04510
C331        C  0.02182452  0.55210437  0.51984260    -0.01620
C332        C  0.01883670  0.55058508  0.57147998     0.03350
C333        C  0.89677899  0.61019319  0.58648014     0.38000
C334        C  0.06719614  0.53954983  0.49894708     0.38000
C335        C  0.05725418  0.52688943  0.59946898     0.36420
C336        C  0.89987265  0.60456130  0.48356880     0.36420
N337        N  0.08751948  0.50695939  0.62150512    -0.38400
N338        N  0.86727316  0.61902610  0.46005386    -0.38400
N339        N  0.10412019  0.53044886  0.48319404    -0.37850
N340        N  0.86317833  0.62824519  0.60366603    -0.37850
C341        C  0.67289533  0.85464799  0.24320172    -0.04510
C342        C  0.66516272  0.88914233  0.20953282    -0.01630
C343        C  0.62106422  0.89075647  0.18134290     0.03360
C344        C  0.58453927  0.85888759  0.18852508    -0.04510
C345        C  0.59295986  0.82376759  0.22164962    -0.01620
C346        C  0.63752444  0.82104667  0.24827796     0.03350
C347        C  0.70264445  0.92230376  0.20369043     0.38000
C348        C  0.55684848  0.78865823  0.22634800     0.38000
C349        C  0.64757195  0.78274953  0.27999530     0.36420
C350        C  0.61357658  0.92494323  0.14500014     0.36420
N351        N  0.65569305  0.75207504  0.30502055    -0.38400
N352        N  0.60816478  0.95235651  0.11610257    -0.38400
N353        N  0.52815726  0.76061319  0.22998498    -0.37850
N354        N  0.73257655  0.94867971  0.19893780    -0.37850
C355        C  0.61430595  0.81825143  0.96262340    -0.04510
C356        C  0.63659318  0.77859206  0.93571221    -0.01630
C357        C  0.67509968  0.78618080  0.90796692     0.03360
C358        C  0.69530270  0.83217658  0.91147521    -0.04510
C359        C  0.67742534  0.86997086  0.94352007    -0.01620
C360        C  0.63500986  0.86424883  0.96605758     0.03350
C361        C  0.62022550  0.72973469  0.93576181     0.38000
C362        C  0.70183064  0.91549141  0.95190260     0.38000
C363        C  0.61125368  0.90693927  0.98900198     0.36420
C364        C  0.69151151  0.74710871  0.87370750     0.36420
N365        N  0.59214259  0.94135584  0.00625022    -0.38400
N366        N  0.70429537  0.71580952  0.84649806    -0.38400
N367        N  0.72126997  0.95171383  0.95868824    -0.37850
N368        N  0.60741987  0.69074943  0.93567954    -0.37850
C369        C  0.35900843  0.75761164  0.84477717    -0.04510
C370        C  0.37094666  0.79656262  0.87982204    -0.01630
C371        C  0.39409326  0.78777019  0.92506966     0.03360
C372        C  0.40392633  0.74013730  0.93670090    -0.04510
C373        C  0.39210684  0.70106960  0.90204129    -0.01620
C374        C  0.37027769  0.70974023  0.85588199     0.03350
C375        C  0.36038325  0.84620941  0.87005145     0.38000
C376        C  0.40285952  0.65205461  0.91387079     0.38000
C377        C  0.36054029  0.66942698  0.81942996     0.36420
C378        C  0.41139995  0.82839298  0.95768738     0.36420
N379        N  0.35271224  0.63729030  0.79036888    -0.38400
N380        N  0.42532261  0.86189194  0.98188673    -0.38400
N381        N  0.41150333  0.61304891  0.92351676    -0.37850
N382        N  0.35388813  0.88642750  0.86386584    -0.37850
C383        C  0.32522149  0.25580768  0.17894354    -0.04510
C384        C  0.33111675  0.23280198  0.22251222    -0.01630
C385        C  0.29002374  0.22238193  0.24603512     0.03360
C386        C  0.24363107  0.23212272  0.22413982    -0.04510
C387        C  0.23883692  0.24320932  0.17540269    -0.01620
C388        C  0.27855290  0.26019976  0.15499447     0.03350
C389        C  0.37883493  0.22459625  0.24571602     0.38000
C390        C  0.19143242  0.24401801  0.14937755     0.38000
C391        C  0.26964999  0.28733028  0.11284500     0.36420
C392        C  0.29546591  0.20460253  0.29372451     0.36420
N393        N  0.26108972  0.31068329  0.08070474    -0.38400
N394        N  0.29994168  0.18998283  0.33164210    -0.38400
N395        N  0.15371363  0.24450724  0.12858261    -0.37850
N396        N  0.41690792  0.21792897  0.26425077    -0.37850
C397        C  0.46565235  0.99346448  0.08127953    -0.04490
C398        C  0.43858956  0.01621322  0.04339678    -0.01630
C399        C  0.43560220  0.06804326  0.04296070     0.03360
C400        C  0.46013029  0.09930004  0.07985061    -0.04510
C401        C  0.48671916  0.07659221  0.11783608    -0.01620
C402        C  0.48809505  0.02516166  0.11938496     0.03350
C403        C  0.41188967  0.98655849  0.00540869     0.38000
C404        C  0.51297099  0.10653836  0.15613039     0.38000
C405        C  0.51239619  0.00494401  0.16139474     0.36420
C406        C  0.40759287  0.08939202  0.00372781     0.36420
N407        N  0.53127318  0.98923047  0.19544704    -0.38400
N408        N  0.38508398  0.10664360  0.97255940    -0.38400
N409        N  0.53411280  0.13038185  0.18661860    -0.37850
N410        N  0.38990260  0.96368607  0.97479729    -0.37850
C411        C  0.47521471  0.49112869  0.08147362    -0.04510
C412        C  0.45495652  0.52908652  0.11346894    -0.01630
C413        C  0.46147236  0.57951241  0.10888993     0.03360
C414        C  0.48874933  0.59540323  0.07223030    -0.04510
C415        C  0.50977095  0.55756881  0.04078845    -0.01620
C416        C  0.50334941  0.50706021  0.04538802     0.03350
C417        C  0.42733310  0.51699544  0.15264979     0.38000
C418        C  0.53734110  0.57003753  0.00172332     0.38000
C419        C  0.52552472  0.47150219  0.01139899     0.36420
C420        C  0.44010980  0.61519910  0.14337083     0.36420
N421        N  0.54344230  0.44342829  0.98411163    -0.38400
N422        N  0.42293676  0.64350100  0.17097292    -0.38400
N423        N  0.55939046  0.57968115  0.97043458    -0.37850
N424        N  0.40517876  0.50780647  0.18404153    -0.37850
C425        C  0.82733779  0.50147788  0.82887551    -0.04510
C426        C  0.78030605  0.52131467  0.81995219    -0.01630
C427        C  0.74102826  0.49082949  0.81272502     0.03360
C428        C  0.74895065  0.44130175  0.81653532    -0.04510
C429        C  0.79435027  0.42325800  0.83421470    -0.01620
C430        C  0.83380619  0.45339344  0.84033591     0.03350
C431        C  0.77265440  0.57271141  0.81681960     0.38000
C432        C  0.80146247  0.37298152  0.84305283     0.38000
C433        C  0.88132223  0.43352644  0.85427438     0.36420
C434        C  0.69320735  0.50970465  0.79877899     0.36420
N435        N  0.91907197  0.41752250  0.86548657    -0.38400
N436        N  0.65502009  0.52464818  0.78760173    -0.38400
N437        N  0.80863258  0.33292585  0.84966959    -0.37850
N438        N  0.76644059  0.61374081  0.81470916    -0.37850
C439        C  0.62298302  0.34110495  0.86093249    -0.04510
C440        C  0.64699780  0.32549145  0.90370046    -0.01630
C441        C  0.62046848  0.31169548  0.94061015     0.03360
C442        C  0.56968019  0.31587038  0.93606289    -0.04510
C443        C  0.54553114  0.33058090  0.89283914    -0.01620
C444        C  0.57229397  0.34292499  0.85508739     0.03350
C445        C  0.69915146  0.32328518  0.91033194     0.38000
C446        C  0.49341663  0.32991546  0.88575482     0.38000
C447        C  0.54783265  0.35776199  0.81040890     0.36420
C448        C  0.64593348  0.29207336  0.98260932     0.36420
N449        N  0.52838012  0.36945560  0.77469264    -0.38400
N450        N  0.66669549  0.27540064  0.01516622    -0.38400
N451        N  0.45190802  0.32879434  0.87947836    -0.37850
N452        N  0.74053831  0.32123191  0.91795309    -0.37850
C453        C  0.71763258  0.20762784  0.65461594    -0.04510
C454        C  0.67189507  0.23159899  0.64935804    -0.01630
C455        C  0.66339528  0.27652487  0.67593173     0.03360
C456        C  0.70080957  0.29877405  0.70637097    -0.04510
C457        C  0.74834120  0.27934036  0.70413221    -0.01620
C458        C  0.75662578  0.23340897  0.67978820     0.03350
C459        C  0.63321463  0.21050667  0.61692927     0.38000
C460        C  0.78940311  0.30548602  0.72717996     0.38000
C461        C  0.80532368  0.21250281  0.68369186     0.36420
C462        C  0.61585302  0.29979234  0.67252595     0.36420
N463        N  0.84415822  0.19615662  0.68722430    -0.38400
N464        N  0.57795696  0.31833931  0.66984626    -0.38400
N465        N  0.82346037  0.32558266  0.74329538    -0.37850
N466        N  0.60209990  0.19421536  0.59103408    -0.37850
C467        C  0.70404567  0.00124291  0.71807865    -0.04510
C468        C  0.68910947  0.95360887  0.70249460    -0.01630
C469        C  0.69922883  0.91682769  0.73307664     0.03360
C470        C  0.72712871  0.92637061  0.77729043    -0.04510
C471        C  0.73934767  0.97381006  0.79449173    -0.01620
C472        C  0.72644056  0.01156458  0.76562029     0.03350
C473        C  0.66607370  0.94076119  0.65407232     0.38000
C474        C  0.76602816  0.98351378  0.84155166     0.38000
C475        C  0.73644503  0.06074766  0.78506590     0.36420
C476        C  0.67996964  0.86942970  0.71924130     0.36420
N477        N  0.74435867  0.09993360  0.80070510    -0.38400
N478        N  0.66291453  0.83254972  0.70749193    -0.38400
N479        N  0.78743231  0.99111705  0.87899394    -0.37850
N480        N  0.64807659  0.93004548  0.61548823    -0.37850
C481        C  0.73836275  0.86878364  0.41225983    -0.04510
C482        C  0.77710620  0.88898465  0.44269121    -0.01630
C483        C  0.76699737  0.92346690  0.48134991     0.03360
C484        C  0.71921454  0.94150759  0.48486129    -0.04510
C485        C  0.68135448  0.91205355  0.46440809    -0.01620
C486        C  0.69126461  0.87470739  0.42828350     0.03350
C487        C  0.82683799  0.87894557  0.43201282     0.38000
C488        C  0.63224109  0.92205797  0.47740167     0.38000
C489        C  0.65234554  0.84578937  0.40472311     0.36420
C490        C  0.80578089  0.94270684  0.51495073     0.36420
N491        N  0.62049448  0.82344210  0.38659439    -0.38400
N492        N  0.83693845  0.95733532  0.54187716    -0.38400
N493        N  0.59300563  0.93002455  0.48759167    -0.37850
N494        N  0.86678199  0.87126378  0.42425975    -0.37850
C495        C  0.91570025  0.06662327  0.56638722    -0.04510
C496        C  0.94827075  0.05634255  0.60705336    -0.01630
C497        C  0.99964325  0.05440771  0.60484630     0.03360
C498        C  0.02240092  0.06211997  0.56165451    -0.04510
C499        C  0.99011612  0.06923220  0.51999752    -0.01620
C500        C  0.93812615  0.07214814  0.52241412     0.03350
C501        C  0.92947480  0.04555130  0.65223047     0.38000
C502        C  0.01012946  0.06949674  0.47324973     0.38000
C503        C  0.90783958  0.08066866  0.47889245     0.36420
C504        C  0.02877310  0.04289907  0.64838756     0.36420
N505        N  0.88373199  0.08741674  0.44399171    -0.38400
N506        N  0.05114808  0.03279029  0.68323964    -0.38400
N507        N  0.02607068  0.06891669  0.43573029    -0.37850
N508        N  0.91498362  0.03688420  0.68841820    -0.37850
C509        C  0.52145808  0.08410349  0.55914334    -0.04510
C510        C  0.49668954  0.05245731  0.58521820    -0.01630
C511        C  0.44467357  0.05321440  0.58427253     0.03360
C512        C  0.41516163  0.08626764  0.55766519    -0.04510
C513        C  0.44079971  0.12014243  0.53449645    -0.01620
C514        C  0.49231985  0.11825237  0.53437763     0.03350
C515        C  0.52478267  0.01746491  0.61178321     0.38000
C516        C  0.41468958  0.15885952  0.51134032     0.38000
C517        C  0.51565751  0.15269761  0.50870670     0.36420
C518        C  0.42185225  0.01888903  0.61027344     0.36420
N519        N  0.53417302  0.18015380  0.48815271    -0.38400
N520        N  0.40385600  0.99146699  0.63130344    -0.38400
N521        N  0.39419375  0.18995859  0.49291904    -0.37850
N522        N  0.54716640  0.98953891  0.63315287    -0.37850
C523        C  0.34124790  0.30884633  0.98990525    -0.04510
C524        C  0.30503694  0.27491103  0.97623432    -0.01630
C525        C  0.27460143  0.27934370  0.93373741     0.03360
C526        C  0.28353579  0.31421626  0.90208875    -0.04510
C527        C  0.32285746  0.34447856  0.91298752    -0.01620
C528        C  0.35066441  0.34301508  0.95738665     0.03350
C529        C  0.29889269  0.23521904  0.00515649     0.38000
C530        C  0.33675149  0.37512876  0.87731217     0.38000
C531        C  0.39029301  0.37564742  0.96798062     0.36420
C532        C  0.23373369  0.24828936  0.92281540     0.36420
N533        N  0.42142140  0.40227202  0.97519058    -0.38400
N534        N  0.20111291  0.22362648  0.91410575    -0.38400
N535        N  0.34919983  0.39906264  0.84912218    -0.37850
N536        N  0.29408556  0.20316855  0.02772744    -0.37850
C537        C  0.17068642  0.39924690  0.78675328    -0.04510
C538        C  0.19177059  0.44448038  0.78688016    -0.01630
C539        C  0.16252052  0.48672620  0.78767315     0.03360
C540        C  0.11218398  0.48363443  0.78723928    -0.04510
C541        C  0.09075939  0.43843989  0.78237593    -0.01620
C542        C  0.11997119  0.39618799  0.78155018     0.03350
C543        C  0.24339789  0.44765198  0.78533133     0.38000
C544        C  0.03881910  0.43509961  0.78144592     0.38000
C545        C  0.09709957  0.35007945  0.77671201     0.36420
C546        C  0.18415416  0.53353672  0.79032759     0.36420
N547        N  0.07684405  0.31434796  0.77175133    -0.38400
N548        N  0.20127250  0.57090015  0.79255390    -0.38400
N549        N  0.99762979  0.43087419  0.78098892    -0.37850
N550        N  0.28439910  0.45105197  0.78319697    -0.37850
C551        C  0.22665658  0.22870289  0.74579696    -0.04510
C552        C  0.26791059  0.20905335  0.72422065    -0.01630
C553        C  0.26673136  0.16304748  0.69836836     0.03360
C554        C  0.22223528  0.13881936  0.68892138    -0.04510
C555        C  0.18058146  0.16040100  0.71008744    -0.01620
C556        C  0.18435413  0.20264044  0.74181008     0.03350
C557        C  0.31205846  0.23583567  0.72990444     0.38000
C558        C  0.13281972  0.14160822  0.69878020     0.38000
C559        C  0.14624164  0.21659276  0.77387154     0.36420
C560        C  0.31208503  0.14153387  0.68309877     0.36420
N561        N  0.11649800  0.22569122  0.80060103    -0.38400
N562        N  0.34898338  0.12517934  0.67218842    -0.38400
N563        N  0.09397753  0.12856385  0.68971785    -0.37850
N564        N  0.34715252  0.25721391  0.73460110    -0.37850
C565        C  0.19615833  0.95228652  0.33030111    -0.04510
C566        C  0.22830705  0.94389319  0.37093795    -0.01630
C567        C  0.23348283  0.97930297  0.41034485     0.03360
C568        C  0.20686504  0.02312212  0.40912486    -0.04510
C569        C  0.17559633  0.03195572  0.36815669    -0.01620
C570        C  0.17009315  0.99638098  0.32868200     0.03350
C571        C  0.25631153  0.89911744  0.37292014     0.38000
C572        C  0.15100308  0.07827907  0.36533138     0.38000
C573        C  0.13891101  0.00555469  0.28573657     0.36420
C574        C  0.26622348  0.97057573  0.45232627     0.36420
N575        N  0.11426176  0.01277871  0.25133970    -0.38400
N576        N  0.29267858  0.96394505  0.48555296    -0.38400
N577        N  0.13128008  0.11511714  0.36192006    -0.37850
N578        N  0.27974768  0.86430677  0.37645240    -0.37850
C579        C  0.34540289  0.78980450  0.16772876    -0.04510
C580        C  0.33585819  0.78170993  0.21530248    -0.01630
C581        C  0.29446732  0.80284969  0.23481738     0.03360
C582        C  0.26581601  0.83568490  0.20832547    -0.04510
C583        C  0.27424233  0.84216483  0.16006687    -0.01620
C584        C  0.31346545  0.81792901  0.13905303     0.03350
C585        C  0.36875814  0.75199233  0.24400664     0.38000
C586        C  0.24226432  0.87337185  0.13219155     0.38000
C587        C  0.32142030  0.82318395  0.08858107     0.36420
C588        C  0.27999472  0.78843208  0.28041067     0.36420
N589        N  0.32657833  0.82734320  0.04806422    -0.38400
N590        N  0.26834628  0.77499904  0.31587970    -0.38400
N591        N  0.21661042  0.89824844  0.11015350    -0.37850
N592        N  0.39517986  0.72855397  0.26689765    -0.37850
C593        C  0.11612623  0.80505994  0.26372139    -0.04510
C594        C  0.12850613  0.78274914  0.30695362    -0.01630
C595        C  0.11653718  0.73504667  0.30938209     0.03360
C596        C  0.08860355  0.71073285  0.27047867    -0.04510
C597        C  0.07631210  0.73260454  0.22726068    -0.01620
C598        C  0.08965996  0.78004105  0.22405590     0.03350
C599        C  0.15437475  0.80803368  0.34897072     0.38000
C600        C  0.05051235  0.70645520  0.18599809     0.38000
C601        C  0.07759413  0.80287513  0.17948919     0.36420
C602        C  0.13234065  0.71082709  0.35247198     0.36420
N603        N  0.06826000  0.82107081  0.14392419    -0.38400
N604        N  0.14476187  0.69150164  0.38670216    -0.38400
N605        N  0.03089766  0.68582756  0.15225320    -0.37850
N606        N  0.17414908  0.82759894  0.38329813    -0.37850
C607        C  0.83103880  0.34352127  0.31338132    -0.04510
C608        C  0.88113329  0.33669850  0.30959685    -0.01630
C609        C  0.91049691  0.37665526  0.31706419     0.03360
C610        C  0.88922858  0.42325728  0.32490736    -0.04510
C611        C  0.84107850  0.42915347  0.33700345    -0.01620
C612        C  0.81191281  0.38886364  0.33180865     0.03350
C613        C  0.90200426  0.28985811  0.29327620     0.38000
C614        C  0.82035716  0.47679628  0.35019342     0.38000
C615        C  0.76168095  0.39480504  0.34235934     0.36420
C616        C  0.96210431  0.37020852  0.31308100     0.36420
N617        N  0.72160151  0.40019613  0.35049822    -0.38400
N618        N  0.00314431  0.36456628  0.30983550    -0.38400
N619        N  0.80378569  0.51475941  0.36075285    -0.37850
N620        N  0.91875450  0.25261430  0.28021255    -0.37850
C621        C  0.74187984  0.13171881  0.39906056    -0.04510
C622        C  0.72464035  0.17985231  0.40325772    -0.01630
C623        C  0.73364805  0.20960379  0.36772681     0.03360
C624        C  0.75927894  0.19091518  0.32746519    -0.04510
C625        C  0.77480200  0.14216137  0.32209807    -0.01620
C626        C  0.76611671  0.11225721  0.35835235     0.03350
C627        C  0.69805244  0.19899448  0.44465262     0.38000
C628        C  0.80068162  0.12352339  0.28037017     0.38000
C629        C  0.78316410  0.06231931  0.35478742     0.36420
C630        C  0.71753131  0.25993216  0.37350881     0.36420
N631        N  0.79673274  0.02244446  0.35213580    -0.38400
N632        N  0.70449156  0.29989420  0.37850606    -0.38400
N633        N  0.82136399  0.10869415  0.24703290    -0.37850
N634        N  0.67691006  0.21425917  0.47752983    -0.37850
C635        C  0.68512221  0.29091742  0.20884284    -0.04510
C636        C  0.63953993  0.27697658  0.22129418    -0.01630
C637        C  0.59924436  0.28046578  0.18809732     0.03360
C638        C  0.60348446  0.30114855  0.14443269    -0.04510
C639        C  0.64586154  0.32398973  0.13673333    -0.01620
C640        C  0.68771804  0.31628172  0.16714647     0.03350
C641        C  0.63341510  0.25830975  0.26754840     0.38000
C642        C  0.64642648  0.35479287  0.09748567     0.38000
C643        C  0.73343511  0.33157322  0.15325314     0.36420
C644        C  0.55321281  0.26260818  0.19856177     0.36420
N645        N  0.76980864  0.34382690  0.14197076    -0.38400
N646        N  0.51650703  0.24852243  0.20684263    -0.38400
N647        N  0.64658672  0.38029614  0.06692019    -0.37850
N648        N  0.62706378  0.24285803  0.30377613    -0.37850
loop_ 
_geom_bond_atom_site_label_1 
_geom_bond_atom_site_label_2 
_geom_bond_distance 
_geom_bond_site_symmetry_2 
_ccdc_geom_bond_type 
C1            C2   1.402       .  A
C1            C6   1.399       .  A
C1          C635   1.483       .  S
C2            C3   1.394       .  A
C2            H7   1.084       .  S
C3            C4   1.392       .  A
C3          C624   1.460       .  S
C4            C5   1.391       .  A
C4            H8   1.085       .  S
C5            C6   1.399       .  A
C5          C607   1.471       .  S
C6            H9   1.083       .  S
C10          C11   1.380       .  A
C10          C15   1.390       .  A
C10         C582   1.450       .  S
C11          C12   1.389       .  A
C11          H16   1.086       .  S
C12          C13   1.398       .  A
C12         C593   1.462       .  S
C13          C14   1.400       .  A
C13          H17   1.084       .  S
C14          C15   1.396       .  A
C14         C565   1.462       .  S
C15          H18   1.084       .  S
C19          C20   1.389       .  A
C19          C24   1.401       .  A
C19         C526   1.472       .  S
C20          C21   1.388       .  A
C20          H25   1.085       .  S
C21          C22   1.399       .  A
C21         C551   1.463       .  S
C22          C23   1.400       .  A
C22          H26   1.084       .  S
C23          C24   1.405       .  A
C23         C537   1.480       .  S
C24          H27   1.084       .  S
O28         Ni34   1.954       .  S
O28          C49   1.277       .  A
O29         Ni52   1.982       .  S
O29          C38   1.285       .  A
O30         Ni34   1.899       .  S
O30         Ni52   1.960       .  S
O30         Ni46   1.894       .  S
O30          H53   0.966       .  S
C31         C621   1.446       .  S
C31          O48   1.263       .  A
C31          O40   1.268       .  A
O32         Ni51   1.953       .  S
O32          C38   1.276       .  A
O33         Ni51   1.905       .  S
O33          C35   1.274   1_545  A
Ni34         O37   1.924       .  S
Ni34         O39   1.896       .  S
C35         C484   1.482       .  S
C35          O45   1.279   1_565  A
O36         Ni52   1.874       .  S
O36          C42   1.261       .  A
O37          C42   1.270       .  A
C38         C509   1.553       .  S
O39          C41   1.270       .  A
O40         Ni51   1.933       .  S
C41         C453   1.495       .  S
C41          O47   1.281       .  A
C42         C467   1.477       .  S
H43          O44   0.966       .  S
O44         Ni52   1.904       .  S
O44         Ni46   1.959       .  S
O44         Ni51   1.920       .  S
O45         Ni46   1.927       .  S
Ni46         O50   1.995       .  S
Ni46         O48   1.872       .  S
O47         Ni52   1.947       .  S
C49         C495   1.577       .  S
C49          O50   1.288       .  A
C54          C55   1.399       .  A
C54          C59   1.391       .  A
C54         C439   1.467       .  S
C55          C56   1.405       .  A
C55          H60   1.084       .  S
C56          C57   1.400       .  A
C56         C456   1.488       .  S
C57          C58   1.399       .  A
C57          H61   1.083       .  S
C58          C59   1.388       .  A
C58         C428   1.462       .  S
C59          H62   1.085       .  S
O63         Ni69   1.962       .  S
O63          C84   1.277       .  A
O64         Ni87   1.995       .  S
O64          C73   1.291       .  A
O65         Ni69   1.920       .  S
O65         Ni87   1.964       .  S
O65         Ni81   1.935       .  S
O65          H88   0.966       .  S
C66         C442   1.467       .  S
C66          O83   1.271       .  A
C66          O75   1.274       .  A
O67         Ni86   1.951       .  S
O67          C73   1.273       .  A
O68         Ni86   1.892       .  S
O68          C70   1.270       .  A
Ni69         O72   1.927       .  S
Ni69         O74   1.889       .  S
C70         C638   1.458       .  S
C70          O80   1.268       .  A
O71         Ni87   1.900       .  S
O71          C77   1.265       .  A
O72          C77   1.271       .  A
C73         C400   1.553       .  S
O74          C76   1.277       .  A
O75         Ni86   1.915   1_556  S
C76         C523   1.478   1_554  S
C76          O82   1.286       .  A
C77         C383   1.482       .  S
H78          O79   0.966       .  S
O79         Ni87   1.887       .  S
O79         Ni81   1.945       .  S
O79         Ni86   1.905       .  S
O80         Ni81   1.917       .  S
Ni81         O85   1.989       .  S
Ni81         O83   1.894   1_554  S
O82         Ni87   1.948       .  S
C84         C411   1.580       .  S
C84          O85   1.286       .  A
O89         Ni95   1.909       .  S
O89         C110   1.267       .  A
O90        Ni113   1.883       .  S
O90          C99   1.265   1_554  A
O91         Ni95   1.895       .  S
O91        Ni113   1.866       .  S
O91        Ni107   1.974       .  S
O91         H114   0.962       .  S
C92         C414   1.577       .  S
C92         O109   1.291       .  A
C92         O101   1.283       .  A
O93        Ni112   1.923   1_556  S
O93          C99   1.269       .  A
O94        Ni112   1.892   1_556  S
O94          C96   1.264       .  A
Ni95         O98   1.961       .  S
Ni95        O100   1.897       .  S
C96         C372   1.466       .  S
C96         O106   1.271   1_556  A
O97        Ni113   2.018       .  S
O97         C103   1.305       .  A
O98         C103   1.287       .  A
C99         C355   1.480       .  S
O100        C102   1.264       .  A
O101       Ni112   1.964       .  S
C102        C344   1.456       .  S
C102        O108   1.257       .  A
C103        C397   1.560       .  S
H104        O105   0.966       .  S
O105       Ni113   1.994       .  S
O105       Ni107   1.881       .  S
O105       Ni112   1.909       .  S
O106       Ni107   1.916       .  S
Ni107       O111   1.879       .  S
Ni107       O109   1.994       .  S
O108       Ni113   1.883       .  S
C110        C579   1.441       .  S
C110        O111   1.262       .  A
O115       Ni121   1.968       .  S
O115        C136   1.279   1_455  A
O116       Ni139   1.985       .  S
O116        C125   1.286   1_455  A
O117       Ni121   1.906       .  S
O117       Ni139   1.942       .  S
O117       Ni133   1.882   1_455  S
O117        H140   0.957   1_455  S
C118        C425   1.467       .  S
C118        O135   1.262       .  A
C118        O127   1.269       .  A
O119       Ni138   1.937       .  S
O119        C125   1.271       .  A
O120       Ni138   1.897       .  S
O120        C122   1.273       .  A
Ni121       O124   1.923       .  S
Ni121       O126   1.896       .  S
C122        C299   1.471       .  S
C122        O132   1.279       .  A
O123       Ni139   1.888       .  S
O123        C129   1.268       .  A
O124        C129   1.277       .  A
C125        C327   1.552       .  S
O126        C128   1.270       .  A
O127       Ni138   1.924       .  S
C128        C540   1.461       .  S
C128        O134   1.273       .  A
C129        C285   1.464       .  S
H130        O131   0.963       .  S
O131       Ni139   1.916   1_655  S
O131       Ni133   1.952       .  S
O131       Ni138   1.912       .  S
O132       Ni133   1.943       .  S
Ni133       O137   1.971       .  S
Ni133       O135   1.882       .  S
O134       Ni139   1.922       .  S
C136        C313   1.549       .  S
C136        O137   1.280       .  A
C141        C142   1.395       .  A
C141        C146   1.405       .  A
C141        C369   1.481       .  S
C142        C143   1.392       .  A
C142        H147   1.085       .  S
C143        C144   1.390       .  A
C143        C288   1.464       .  S
C144        C145   1.399       .  A
C144        H148   1.084       .  S
C145        C146   1.400       .  A
C145        C271   1.468       .  S
C146        H149   1.083       .  S
O150       Ni156   1.948       .  S
O150        C171   1.273       .  A
O151       Ni174   2.009       .  S
O151        C160   1.292       .  A
O152       Ni156   1.902       .  S
O152       Ni174   1.959       .  S
O152       Ni168   1.910       .  S
O152        H175   0.966       .  S
C153        C274   1.478       .  S
C153        O170   1.263       .  A
C153        O162   1.271       .  A
O154       Ni173   1.940       .  S
O154        C160   1.273       .  A
O155       Ni173   1.898       .  S
O155        C157   1.274       .  A
Ni156       O159   1.903       .  S
Ni156       O161   1.885       .  S
C157        C554   1.496       .  S
C157        O167   1.276       .  A
O158       Ni174   1.914       .  S
O158        C164   1.270       .  A
O159        C164   1.272       .  A
C160        C498   1.575       .  S
O161        C163   1.272       .  A
O162       Ni173   1.917   1_565  S
C163        C568   1.458       .  S
C163        O169   1.279       .  A
C164        C260   1.471       .  S
H165        O166   0.966       .  S
O166       Ni174   1.935       .  S
O166       Ni168   1.959       .  S
O166       Ni173   1.912       .  S
O167       Ni168   1.931       .  S
Ni168       O172   1.987       .  S
Ni168       O170   1.900   1_545  S
O169       Ni174   1.937       .  S
C171        C512   1.569       .  S
C171        O172   1.285       .  A
C176        C177   1.400       .  A
C176        C181   1.395       .  A
C176        C481   1.481       .  S
C177        C178   1.393       .  A
C177        H182   1.084       .  S
C178        C179   1.390       .  A
C178        C341   1.457       .  S
C179        C180   1.391       .  A
C179        H183   1.084       .  S
C180        C181   1.400       .  A
C180        C246   1.457       .  S
C181        H184   1.083       .  S
C185        C186   1.409       .  A
C185        C190   1.390       .  A
C185        C257   1.474       .  S
C186        C187   1.405       .  A
C186        H191   1.083       .  S
C187        C188   1.404       .  A
C187        C386   1.482       .  S
C188        C189   1.391       .  A
C188        H192   1.083       .  S
C189        C190   1.398       .  A
C189        C232   1.480       .  S
C190        H193   1.085       .  S
O194       Ni200   1.943       .  S
O194        C215   1.272       .  A
O195       Ni218   1.981       .  S
O195        C204   1.284       .  A
O196       Ni200   1.913       .  S
O196       Ni218   1.952       .  S
O196       Ni212   1.915   1_655  S
O196        H219   0.962       .  S
C197        C596   1.453       .  S
C197        O214   1.268       .  A
C197        O206   1.269       .  A
O198       Ni217   1.945   1_655  S
O198        C204   1.271       .  A
O199       Ni217   1.899   1_655  S
O199        C201   1.272       .  A
Ni200       O203   1.919       .  S
Ni200       O205   1.891   1_655  S
C201        C243   1.451       .  S
C201        O211   1.273       .  A
O202       Ni218   1.883       .  S
O202        C208   1.260       .  A
O203        C208   1.270       .  A
C204        C330   1.542       .  S
O205        C207   1.274       .  A
O206       Ni217   1.896       .  S
C207        C229   1.481       .  S
C207        O213   1.279       .  A
C208        C610   1.462       .  S
H209        O210   0.966       .  S
O210       Ni218   1.887   1_455  S
O210       Ni212   1.952       .  S
O210       Ni217   1.904       .  S
O211       Ni212   1.924   1_655  S
Ni212       O216   1.988   1_455  S
Ni212       O214   1.894       .  S
O213       Ni218   1.927   1_455  S
C215        C316   1.554       .  S
C215        O216   1.287       .  A
C220        C221   1.395       .  A
C220        C225   1.395       .  A
C220        C358   1.472       .  S
C221        C222   1.387       .  A
C221        H226   1.085       .  S
C222        C223   1.397       .  A
C222        C470   1.460       .  S
C223        C224   1.397       .  A
C223        H227   1.084       .  S
C224        C225   1.396       .  A
C224        C302   1.465       .  S
C225        H228   1.084       .  S
C229        C230   1.413       .  A
C229        C234   1.415       .  A
C230        C231   1.402       .  A
C230        C235   1.451       .  S
C231        C232   1.413       .  A
C231        C238   1.449       .  S
C232        C233   1.413       .  A
C233        C234   1.397       .  A
C233        C236   1.452       .  S
C234        C237   1.450       .  S
C235        N242   1.157       .  T
C236        N241   1.157       .  T
C237        N239   1.156       .  T
C238        N240   1.157       .  T
C243        C244   1.409       .  A
C243        C248   1.410       .  A
C244        C245   1.401       .  A
C244        C249   1.450       .  S
C245        C246   1.408       .  A
C245        C252   1.451       .  S
C246        C247   1.405       .  A
C247        C248   1.397       .  A
C247        C250   1.453       .  S
C248        C251   1.452       .  S
C249        N256   1.157       .  T
C250        N255   1.157       .  T
C251        N253   1.157       .  T
C252        N254   1.157       .  T
C257        C258   1.416       .  A
C257        C262   1.412       .  A
C258        C259   1.399       .  A
C258        C263   1.454       .  S
C259        C260   1.406       .  A
C259        C266   1.452       .  S
C260        C261   1.406       .  A
C261        C262   1.413       .  A
C261        C264   1.444       .  S
C262        C265   1.449       .  S
C263        N270   1.157       .  T
C264        N269   1.156       .  T
C265        N267   1.157       .  T
C266        N268   1.157       .  T
C271        C272   1.407       .  A
C271        C276   1.410       .  A
C272        C273   1.410       .  A
C272        C277   1.450       .  S
C273        C274   1.413       .  A
C273        C280   1.447       .  S
C274        C275   1.413       .  A
C275        C276   1.397       .  A
C275        C278   1.455       .  S
C276        C279   1.451       .  S
C277        N284   1.157       .  T
C278        N283   1.158   1_565  T
C279        N281   1.157       .  T
C280        N282   1.157       .  T
C285        C286   1.410       .  A
C285        C290   1.411       .  A
C286        C287   1.399       .  A
C286        C291   1.453       .  S
C287        C288   1.410       .  A
C287        C294   1.452       .  S
C288        C289   1.406       .  A
C289        C290   1.404       .  A
C289        C292   1.451       .  S
C290        C293   1.448       .  S
C291        N298   1.157       .  T
C292        N297   1.157       .  T
C293        N295   1.156       .  T
C294        N296   1.157       .  T
C299        C300   1.414       .  A
C299        C304   1.417       .  A
C300        C301   1.400       .  A
C300        C305   1.455       .  S
C301        C302   1.409       .  A
C301        C308   1.450       .  S
C302        C303   1.405       .  A
C303        C304   1.405       .  A
C303        C306   1.452       .  S
C304        C307   1.449       .  S
C305        N312   1.158       .  T
C306        N311   1.157       .  T
C307        N309   1.157       .  T
C308        N310   1.156       .  T
C313        C314   1.419   1_656  A
C313        C318   1.425   1_556  A
C314        C315   1.434       .  A
C314        C319   1.450   1_554  S
C315        C316   1.428   1_455  A
C315        C322   1.450       .  S
C316        C317   1.424       .  A
C317        C318   1.443       .  A
C317        C320   1.448       .  S
C318        C321   1.447   1_554  S
C319        N326   1.157       .  T
C320        N325   1.158       .  T
C321        N323   1.157       .  T
C322        N324   1.157       .  T
C327        C328   1.430       .  A
C327        C332   1.423   1_655  A
C328        C329   1.432       .  A
C328        C333   1.450       .  S
C329        C330   1.417       .  A
C329        C336   1.451       .  S
C330        C331   1.425   1_655  A
C331        C332   1.440       .  A
C331        C334   1.447       .  S
C332        C335   1.447       .  S
C333        N340   1.157       .  T
C334        N339   1.157       .  T
C335        N337   1.157       .  T
C336        N338   1.157       .  T
C341        C342   1.403       .  A
C341        C346   1.411       .  A
C342        C343   1.403       .  A
C342        C347   1.451       .  S
C343        C344   1.416       .  A
C343        C350   1.450       .  S
C344        C345   1.407       .  A
C345        C346   1.396       .  A
C345        C348   1.454       .  S
C346        C349   1.453       .  S
C347        N354   1.157       .  T
C348        N353   1.157       .  T
C349        N351   1.157       .  T
C350        N352   1.157       .  T
C355        C356   1.419       .  A
C355        C360   1.419       .  A
C356        C357   1.401       .  A
C356        C361   1.454       .  S
C357        C358   1.413       .  A
C357        C364   1.454       .  S
C358        C359   1.408       .  A
C359        C360   1.400       .  A
C359        C362   1.454       .  S
C360        C363   1.452       .  S
C361        N368   1.158       .  T
C362        N367   1.157       .  T
C363        N365   1.157   1_556  T
C364        N366   1.157       .  T
C369        C370   1.413       .  A
C369        C374   1.417       .  A
C370        C371   1.400       .  A
C370        C375   1.451       .  S
C371        C372   1.409       .  A
C371        C378   1.449       .  S
C372        C373   1.408       .  A
C373        C374   1.408       .  A
C373        C376   1.451       .  S
C374        C377   1.451       .  S
C375        N382   1.157       .  T
C376        N381   1.157       .  T
C377        N379   1.157       .  T
C378        N380   1.155       .  T
C383        C384   1.415       .  A
C383        C388   1.418       .  A
C384        C385   1.414       .  A
C384        C389   1.449       .  S
C385        C386   1.411       .  A
C385        C392   1.448       .  S
C386        C387   1.406       .  A
C387        C388   1.400       .  A
C387        C390   1.453       .  S
C388        C391   1.451       .  S
C389        N396   1.157       .  T
C390        N395   1.157       .  T
C391        N393   1.157       .  T
C392        N394   1.157       .  T
C397        C398   1.427   1_565  A
C397        C402   1.426   1_565  A
C398        C399   1.446       .  A
C398        C403   1.446   1_545  S
C399        C400   1.423       .  A
C399        C406   1.448       .  S
C400        C401   1.422       .  A
C401        C402   1.438       .  A
C401        C404   1.450       .  S
C402        C405   1.449       .  S
C403        N410   1.157   1_554  T
C404        N409   1.157       .  T
C405        N407   1.157   1_545  T
C406        N408   1.157   1_554  T
C411        C412   1.437       .  A
C411        C416   1.430       .  A
C412        C413   1.445       .  A
C412        C417   1.450       .  S
C413        C414   1.427       .  A
C413        C420   1.451       .  S
C414        C415   1.435       .  A
C415        C416   1.447       .  A
C415        C418   1.450       .  S
C416        C419   1.450       .  S
C417        N424   1.158       .  T
C418        N423   1.158   1_554  T
C419        N421   1.158   1_554  T
C420        N422   1.158       .  T
C425        C426   1.415       .  A
C425        C430   1.410       .  A
C426        C427   1.402       .  A
C426        C431   1.451       .  S
C427        C428   1.403       .  A
C427        C434   1.450       .  S
C428        C429   1.411       .  A
C429        C430   1.400       .  A
C429        C432   1.451       .  S
C430        C433   1.453       .  S
C431        N438   1.157       .  T
C432        N437   1.157       .  T
C433        N435   1.157       .  T
C434        N436   1.157       .  T
C439        C440   1.410       .  A
C439        C444   1.408       .  A
C440        C441   1.398       .  A
C440        C445   1.450       .  S
C441        C442   1.412       .  A
C441        C448   1.454       .  S
C442        C443   1.413       .  A
C443        C444   1.406       .  A
C443        C446   1.450       .  S
C444        C447   1.451       .  S
C445        N452   1.156       .  T
C446        N451   1.157       .  T
C447        N449   1.157       .  T
C448        N450   1.157   1_556  T
C453        C454   1.419       .  A
C453        C458   1.423       .  A
C454        C455   1.409       .  A
C454        C459   1.450       .  S
C455        C456   1.410       .  A
C455        C462   1.452       .  S
C456        C457   1.414       .  A
C457        C458   1.405       .  A
C457        C460   1.451       .  S
C458        C461   1.455       .  S
C459        N466   1.157       .  T
C460        N465   1.157       .  T
C461        N463   1.158       .  T
C462        N464   1.157       .  T
C467        C468   1.423   1_545  A
C467        C472   1.416       .  A
C468        C469   1.399       .  A
C468        C473   1.455       .  S
C469        C470   1.403       .  A
C469        C476   1.451       .  S
C470        C471   1.406       .  A
C471        C472   1.402   1_565  A
C471        C474   1.452       .  S
C472        C475   1.452       .  S
C473        N480   1.158       .  T
C474        N479   1.157       .  T
C475        N477   1.157       .  T
C476        N478   1.156       .  T
C481        C482   1.414       .  A
C481        C486   1.416       .  A
C482        C483   1.402       .  A
C482        C487   1.450       .  S
C483        C484   1.411       .  A
C483        C490   1.451       .  S
C484        C485   1.410       .  A
C485        C486   1.403       .  A
C485        C488   1.451       .  S
C486        C489   1.450       .  S
C487        N494   1.157       .  T
C488        N493   1.158       .  T
C489        N491   1.157       .  T
C490        N492   1.157       .  T
C495        C496   1.432       .  A
C495        C500   1.433       .  A
C496        C497   1.436       .  A
C496        C501   1.454       .  S
C497        C498   1.433   1_655  A
C497        C504   1.453   1_655  S
C498        C499   1.428   1_455  A
C499        C500   1.454       .  A
C499        C502   1.447   1_655  S
C500        C503   1.447       .  S
C501        N508   1.158       .  T
C502        N507   1.158       .  T
C503        N505   1.158       .  T
C504        N506   1.158       .  T
C509        C510   1.424       .  A
C509        C514   1.419       .  A
C510        C511   1.447       .  A
C510        C515   1.447       .  S
C511        C512   1.430       .  A
C511        C518   1.447       .  S
C512        C513   1.435       .  A
C513        C514   1.434       .  A
C513        C516   1.451       .  S
C514        C517   1.452       .  S
C515        N522   1.157   1_545  T
C516        N521   1.158       .  T
C517        N519   1.157       .  T
C518        N520   1.157   1_545  T
C523        C524   1.415       .  A
C523        C528   1.419       .  A
C524        C525   1.406       .  A
C524        C529   1.452   1_556  S
C525        C526   1.413       .  A
C525        C532   1.453       .  S
C526        C527   1.405       .  A
C527        C528   1.401       .  A
C527        C530   1.452       .  S
C528        C531   1.452       .  S
C529        N536   1.158       .  T
C530        N535   1.156       .  T
C531        N533   1.157       .  T
C532        N534   1.157       .  T
C537        C538   1.412       .  A
C537        C542   1.414       .  A
C538        C539   1.405       .  A
C538        C543   1.449       .  S
C539        C540   1.407       .  A
C539        C546   1.453       .  S
C540        C541   1.406       .  A
C541        C542   1.404       .  A
C541        C544   1.452       .  S
C542        C545   1.448       .  S
C543        N550   1.157       .  T
C544        N549   1.157   1_455  T
C545        N547   1.156       .  T
C546        N548   1.157       .  T
C551        C552   1.403       .  A
C551        C556   1.401       .  A
C552        C553   1.405       .  A
C552        C557   1.454       .  S
C553        C554   1.429       .  A
C553        C560   1.452       .  S
C554        C555   1.425       .  A
C555        C556   1.398       .  A
C555        C558   1.449       .  S
C556        C559   1.452       .  S
C557        N564   1.157       .  T
C558        N563   1.156       .  T
C559        N561   1.157       .  T
C560        N562   1.157       .  T
C565        C566   1.412       .  A
C565        C570   1.406       .  A
C566        C567   1.397       .  A
C566        C571   1.449       .  S
C567        C568   1.406   1_565  A
C567        C574   1.452       .  S
C568        C569   1.408       .  A
C569        C570   1.402   1_545  A
C569        C572   1.444       .  S
C570        C573   1.452   1_565  S
C571        N578   1.156       .  T
C572        N577   1.154       .  T
C573        N575   1.157       .  T
C574        N576   1.156       .  T
C579        C580   1.403       .  A
C579        C584   1.411       .  A
C580        C581   1.396       .  A
C580        C585   1.453       .  S
C581        C582   1.412       .  A
C581        C588   1.451       .  S
C582        C583   1.402       .  A
C583        C584   1.396       .  A
C583        C586   1.452       .  S
C584        C587   1.451       .  S
C585        N592   1.157       .  T
C586        N591   1.157       .  T
C587        N589   1.157       .  T
C588        N590   1.157       .  T
C593        C594   1.414       .  A
C593        C598   1.411       .  A
C594        C595   1.394       .  A
C594        C599   1.452       .  S
C595        C596   1.409       .  A
C595        C602   1.456       .  S
C596        C597   1.407       .  A
C597        C598   1.402       .  A
C597        C600   1.447       .  S
C598        C601   1.452       .  S
C599        N606   1.157       .  T
C600        N605   1.156       .  T
C601        N603   1.157       .  T
C602        N604   1.157       .  T
C607        C608   1.412       .  A
C607        C612   1.415       .  A
C608        C609   1.398       .  A
C608        C613   1.453       .  S
C609        C610   1.411       .  A
C609        C616   1.453       .  S
C610        C611   1.407       .  A
C611        C612   1.402       .  A
C611        C614   1.451       .  S
C612        C615   1.451       .  S
C613        N620   1.157       .  T
C614        N619   1.157       .  T
C615        N617   1.157       .  T
C616        N618   1.157   1_655  T
C621        C622   1.404       .  A
C621        C626   1.408       .  A
C622        C623   1.390       .  A
C622        C627   1.456       .  S
C623        C624   1.413       .  A
C623        C630   1.454       .  S
C624        C625   1.407       .  A
C625        C626   1.407       .  A
C625        C628   1.449       .  S
C626        C629   1.450       .  S
C627        N634   1.157       .  T
C628        N633   1.157       .  T
C629        N631   1.157       .  T
C630        N632   1.157       .  T
C635        C636   1.420       .  A
C635        C640   1.419       .  A
C636        C637   1.399       .  A
C636        C641   1.452       .  S
C637        C638   1.403       .  A
C637        C644   1.454       .  S
C638        C639   1.404       .  A
C639        C640   1.405       .  A
C639        C642   1.450       .  S
C640        C643   1.451       .  S
C641        N648   1.157       .  T
C642        N647   1.158       .  T
C643        N645   1.157       .  T
C644        N646   1.157       .  T
