geometry optimzed in LAMMPS
_audit_creation_date              2020-11-30 
_audit_creation_method            'lammps2cif' 
_symmetry_space_group_name_H-M    'P1' 
_symmetry_Int_Tables_number       1 
_symmetry_cell_setting            triclinic 
loop_ 
_symmetry_equiv_pos_as_xyz 
  x,y,z 
_cell_length_a                    69.65190455 
_cell_length_b                    69.54757130364838 
_cell_length_c                    69.55931076500275 
_cell_angle_alpha                 90.02821659474935 
_cell_angle_beta                  89.99337518808753 
_cell_angle_gamma                 90.07325506326202 
loop_ 
_atom_site_label 
_atom_site_type_symbol 
_atom_site_fract_x 
_atom_site_fract_y 
_atom_site_fract_z 
_atom_site_charge 
O1          O  0.64911865  0.62162690  0.59959843    -0.87800
C2          C  0.59598947  0.62304465  0.57633028     0.88300
Mg3        Mg  0.65781817  0.59810638  0.61680469     1.58100
O4          O  0.60025598  0.65257527  0.61738017    -0.87500
O5          O  0.64409494  0.65242896  0.60454859    -0.74800
C6          C  0.58157115  0.57765838  0.67210177     0.93300
O7          O  0.62398975  0.58656244  0.58372403    -0.74600
O8          O  0.59652270  0.56851836  0.66667076    -0.82100
Mg9        Mg  0.63710997  0.61469159  0.57207925     1.58000
C10         C  0.55879202  0.65216828  0.66019396     0.93200
O11         O  0.65067483  0.64280358  0.55818991    -0.80400
H12         H  0.61334652  0.67417219  0.63119882    -0.05700
C13         C  0.57644847  0.60083691  0.62472517     0.88200
O14         O  0.64982334  0.61437435  0.64437717    -0.74900
O15         O  0.61162871  0.62993845  0.58129100    -0.87700
O16         O  0.56001712  0.65642823  0.64229326    -0.80500
C17         C  0.56873736  0.67008969  0.57927738     0.93400
C18         C  0.64536196  0.66034339  0.55600731     0.93200
Mg19       Mg  0.59433644  0.62238984  0.65801033     1.58000
O20         O  0.58006000  0.59556833  0.66901763    -0.80400
O21         O  0.60727926  0.65113009  0.64808947    -0.74700
O22         O  0.58656798  0.66734945  0.57616175    -0.80500
O23         O  0.66285026  0.59513126  0.56242707    -0.82200
O24         O  0.64408072  0.56677375  0.65552397    -0.80500
C25         C  0.60695522  0.65999397  0.63210921     0.87600
O26         O  0.61961642  0.60712182  0.65014831    -0.87700
O27         O  0.58204518  0.61674834  0.63043798    -0.87800
O28         O  0.58661158  0.58574519  0.62637692    -0.74800
Mg29       Mg  0.61473972  0.65892230  0.59109008     1.58000
O30         O  0.56097288  0.66517431  0.59513194    -0.82200
H31         H  0.66889331  0.63880035  0.61148677    -0.05900
O32         O  0.62990874  0.58562430  0.61474273    -0.87500
H33         H  0.61665721  0.56413514  0.60093361    -0.05700
H34         H  0.63535534  0.62311904  0.66814564    -0.05900
C35         C  0.62345182  0.57813104  0.59994360     0.87600
C36         C  0.65474321  0.63759939  0.60514094     0.88200
C37         C  0.63491091  0.61489515  0.65492202     0.88300
H38         H  0.56266411  0.59983150  0.61757545    -0.05900
O39         O  0.58084011  0.62507073  0.58639336    -0.74900
Mg40       Mg  0.61534223  0.57777624  0.64071827     1.58000
H41         H  0.59522969  0.61476405  0.56316320    -0.05900
C42         C  0.66925348  0.58090439  0.57221958     0.93200
O43         O  0.66794958  0.57450348  0.63563486    -0.82200
C44         C  0.66168474  0.56551763  0.65017901     0.93300
O45         O  0.63065650  0.66698098  0.56453244    -0.82100
Mg46       Mg  0.57196818  0.64077331  0.61441835     1.58200
O47         O  0.66736933  0.58055596  0.59045706    -0.80500
O48         O  0.56842485  0.63858486  0.66754786    -0.82200
O49         O  0.91684307  0.63457989  0.38437831    -0.87800
C50         C  0.86314359  0.65624439  0.38580229     0.88300
Mg51       Mg  0.92592250  0.61656700  0.36147247     1.58100
O52         O  0.86944132  0.61595968  0.41581686    -0.87500
O53         O  0.91283347  0.63064400  0.41538921    -0.74800
C54         C  0.85120032  0.55792951  0.34266694     0.93300
O55         O  0.89142265  0.64850956  0.34914315    -0.74600
O56         O  0.86630797  0.56359948  0.33383864    -0.82100
Mg57       Mg  0.90425204  0.66167534  0.37681755     1.58000
C58         C  0.82938108  0.57162841  0.41802007     0.93200
O59         O  0.91709110  0.67754845  0.40466445    -0.80400
H60         H  0.88384414  0.60294176  0.43702447    -0.05700
C61         C  0.84484848  0.60667428  0.36445861     0.88200
O62         O  0.91814182  0.58949920  0.37854889    -0.74900
O63         O  0.87906750  0.65222837  0.39265769    -0.87700
O64         O  0.83014023  0.58966104  0.42186358    -0.80500
C65         C  0.83677287  0.65315720  0.43377580     0.93400
C66         C  0.91174464  0.67991946  0.42222693     0.93200
Mg67       Mg  0.86344699  0.57440060  0.38667066     1.58000
O68         O  0.84873906  0.56194416  0.36027548    -0.80400
O69         O  0.87698810  0.58537359  0.41472273    -0.74700
O70         O  0.85445115  0.65674417  0.43062729    -0.80500
O71         O  0.92998950  0.67113641  0.35674918    -0.82200
O72         O  0.91356156  0.57545217  0.33340783    -0.80500
C73         C  0.87681755  0.60156574  0.42320188     0.87600
O74         O  0.88821889  0.58260162  0.37124182    -0.87700
O75         O  0.85053666  0.60144317  0.38052667    -0.87800
O76         O  0.85499255  0.60474956  0.34931596    -0.74800
Mg77       Mg  0.88298592  0.64291559  0.42179938     1.58000
O78         O  0.82964300  0.63696460  0.42904820    -0.82200
H79         H  0.93766012  0.62451263  0.40140507    -0.05900
O80         O  0.89811485  0.61758293  0.34863043    -0.87500
H81         H  0.88422003  0.63068821  0.32714609    -0.05700
H82         H  0.90427823  0.56560330  0.38791355    -0.05900
C83         C  0.89117231  0.63209802  0.34100796     0.87600
C84         C  0.92316884  0.63002521  0.40035493     0.88200
C85         C  0.90354895  0.57853335  0.37926510     0.88300
H86         H  0.83094813  0.61356597  0.36332367    -0.05900
O87         O  0.84844717  0.64556601  0.38827019    -0.74900
Mg88       Mg  0.88419435  0.59069156  0.34190161     1.58000
H89         H  0.86172657  0.66911462  0.37715725    -0.05900
C90         C  0.93747940  0.66078501  0.34339970     0.93200
O91         O  0.93700763  0.59670129  0.33856260    -0.82200
C92         C  0.93131262  0.58040641  0.33261223     0.93300
O93         O  0.89790435  0.67028651  0.42925495    -0.82100
Mg94       Mg  0.84068375  0.61760204  0.40477549     1.58200
O95         O  0.93564034  0.64260537  0.34382969    -0.80500
O96         O  0.83841648  0.56476857  0.40376999    -0.82200
O97         O  0.91970742  0.36530106  0.11342549    -0.87800
C98         C  0.86708656  0.34166082  0.10699577     0.88300
Mg99       Mg  0.92752033  0.37984372  0.13901198     1.58100
O100        O  0.87343014  0.38406597  0.08020473    -0.87500
O101        O  0.91687522  0.37140125  0.08256276    -0.74800
C102        C  0.85167677  0.43498014  0.15816316     0.93300
O103        O  0.89290952  0.34602736  0.14534419    -0.74600
O104        O  0.86642489  0.42877479  0.16708333    -0.82100
Mg105      Mg  0.90796222  0.33713513  0.11710959     1.58000
C106        C  0.83379742  0.42768668  0.08000532     0.93200
O107        O  0.92420355  0.32682388  0.08902763    -0.80400
H108        H  0.88876898  0.39930885  0.06123664    -0.05700
C109        C  0.84669334  0.38834501  0.13119936     0.88200
O110        O  0.92115419  0.40907392  0.12505504    -0.74900
O111        O  0.88306988  0.34721516  0.10148439    -0.87700
O112        O  0.83470173  0.40997839  0.07477847    -0.80500
C113        C  0.84281835  0.34647149  0.05855166     0.93400
C114        C  0.91924849  0.32497168  0.07139641     0.93200
Mg115      Mg  0.86610531  0.42255905  0.11329348     1.58000
O116        O  0.85001115  0.43247112  0.14010199    -0.80400
O117        O  0.88112610  0.41431147  0.08507826    -0.74700
O118        O  0.86047827  0.34374425  0.06242269    -0.80500
O119        O  0.93270383  0.32603597  0.13653101    -0.82200
O120        O  0.91314075  0.41640213  0.17102619    -0.80500
C121        C  0.88114591  0.39918241  0.07479624     0.87600
O122        O  0.89033439  0.41348987  0.12968135    -0.87700
O123        O  0.85311700  0.39494313  0.11593366    -0.87800
O124        O  0.85595486  0.38927138  0.14699145    -0.74800
Mg125      Mg  0.88795203  0.35811274  0.07340874     1.58000
O126        O  0.83468248  0.36217276  0.06356253    -0.82200
H127        H  0.94032550  0.37858186  0.09838918    -0.05900
O128        O  0.89893548  0.37681795  0.14950555    -0.87500
H129        H  0.88408189  0.36128568  0.16863652    -0.05700
H130        H  0.90702111  0.43338686  0.11729445    -0.05900
C131        C  0.89183768  0.36147010  0.15514616     0.87600
C132        C  0.92631253  0.37181666  0.09822516     0.88200
C133        C  0.90612080  0.41935381  0.12398659     0.88300
H134        H  0.83287551  0.38117973  0.13103639    -0.05900
O135        O  0.85195937  0.35165153  0.10451799    -0.74900
Mg136      Mg  0.88448351  0.40259245  0.15790419     1.58000
H137        H  0.86596838  0.32799801  0.11438471    -0.05900
C138        C  0.93778042  0.33428839  0.15213638     0.93200
O139        O  0.93672605  0.39554221  0.16513106    -0.82200
C140        C  0.93055775  0.41068863  0.17314387     0.93300
O141        O  0.90334346  0.33141036  0.06532753    -0.82100
Mg142      Mg  0.84440702  0.38062760  0.08988843     1.58200
O143        O  0.93559490  0.35227251  0.15442315    -0.80500
O144        O  0.84174624  0.43340201  0.09543340    -0.82200
C145        C  0.74557925  0.56282230  0.00264542     0.80800
N146        N  0.75900946  0.55333841  0.01361324    -0.77500
C147        C  0.76019000  0.53366258  0.01298227     0.83300
N148        N  0.74823924  0.52375696  0.00133693    -0.77400
C149        C  0.73510806  0.53275550  0.99032734     0.83300
N150        N  0.73380099  0.55232320  0.99084776    -0.79200
C151        C  0.06518586  0.49120010  0.25848001     0.80800
N152        N  0.05466520  0.50132349  0.27163782    -0.77500
C153        C  0.03515480  0.50042449  0.27156009     0.83300
N154        N  0.02619649  0.48968283  0.25816498    -0.77400
C155        C  0.03608801  0.47949628  0.24492447     0.83300
N156        N  0.05574238  0.48012070  0.24510165    -0.79200
O157        O  0.65167048  0.38014850  0.89761082    -0.87800
C158        C  0.60060782  0.37817376  0.92447385     0.88300
Mg159      Mg  0.65852333  0.40321054  0.87896524     1.58100
O160        O  0.60350609  0.34688037  0.88471590    -0.87500
O161        O  0.64801313  0.34895552  0.89454053    -0.74800
C162        C  0.57994142  0.41840900  0.82633795     0.93300
O163        O  0.62590413  0.41460886  0.91328100    -0.74600
O164        O  0.59499734  0.42797590  0.83069582    -0.82100
Mg165      Mg  0.64115217  0.38790329  0.92549713     1.58000
C166        C  0.55980684  0.34353804  0.84496228     0.93200
O167        O  0.65666254  0.36141205  0.94031872    -0.80400
H168        H  0.61669115  0.32524915  0.87110315    -0.05700
C169        C  0.57723097  0.39746921  0.87557896     0.88200
O170        O  0.65001682  0.38547335  0.85251788    -0.74900
O171        O  0.61603862  0.37139246  0.91883317    -0.87700
O172        O  0.56206263  0.34061229  0.86300788    -0.80500
C173        C  0.57545065  0.33070056  0.92604431     0.93400
C174        C  0.65198387  0.34389296  0.94374927     0.93200
Mg175      Mg  0.59430005  0.37483165  0.84285625     1.58000
O176        O  0.57869058  0.40075107  0.83067762    -0.80400
O177        O  0.60885352  0.34725168  0.85361542    -0.74700
O178        O  0.59336448  0.33392261  0.92736923    -0.80500
O179        O  0.66654588  0.40835695  0.93227862    -0.82200
O180        O  0.64193301  0.43211079  0.83990380    -0.80500
C181        C  0.60968760  0.33909821  0.86994941     0.87600
O182        O  0.61936344  0.39141524  0.84816733    -0.87700
O183        O  0.58340410  0.38148522  0.87082657    -0.87800
O184        O  0.58656708  0.41285430  0.87233292    -0.74800
Mg185      Mg  0.61982829  0.34222978  0.91017032     1.58000
O186        O  0.56613605  0.33446971  0.91068531    -0.82200
H187        H  0.67164521  0.36344720  0.88546773    -0.05900
O188        O  0.63026774  0.41468110  0.88198610    -0.87500
H189        H  0.61603765  0.43560008  0.89559016    -0.05700
H190        H  0.63467494  0.37542782  0.82983108    -0.05900
C191        C  0.62392486  0.42224296  0.89678523     0.87600
C192        C  0.65783098  0.36424081  0.89256168     0.88200
C193        C  0.63463268  0.38405966  0.84278807     0.88300
H194        H  0.56368407  0.39834139  0.88315895    -0.05900
O195        O  0.58495793  0.37552094  0.91541835    -0.74900
Mg196      Mg  0.61448579  0.42091045  0.85642519     1.58000
H197        H  0.60049904  0.38702965  0.93728577    -0.05900
C198        C  0.67187971  0.42236617  0.92161943     0.93200
O199        O  0.66688182  0.42628527  0.85886918    -0.82200
C200        C  0.65973814  0.43408764  0.84404171     0.93300
O201        O  0.63739587  0.33615108  0.93601814    -0.82100
Mg202      Mg  0.57508421  0.35806709  0.88899584     1.58200
O203        O  0.66887110  0.42223565  0.90361370    -0.80500
O204        O  0.56859554  0.35692972  0.83621187    -0.82200
O205        O  0.42335017  0.12535158  0.90513379    -0.95800
C206        C  0.37130053  0.14971163  0.90974597     0.88300
Mg207      Mg  0.43217185  0.11106139  0.87986273     1.58100
O208        O  0.37599209  0.10586507  0.93413084    -0.87500
O209        O  0.41956987  0.11780883  0.93547590    -0.74800
C210        C  0.35804148  0.05623352  0.85329943     0.93300
O211        O  0.39792015  0.14501854  0.87263881    -0.74600
O212        O  0.37288629  0.06341461  0.84520067    -0.82100
Mg213      Mg  0.41186957  0.15377997  0.90147403     1.58000
C214        C  0.33643186  0.06336681  0.93072064     0.93200
O215        O  0.42634604  0.16451454  0.93040769    -0.80400
H216        H  0.39013375  0.08954744  0.95308344    -0.05700
C217        C  0.35139871  0.10291966  0.88144805     0.88200
O218        O  0.42496250  0.08154014  0.89256523    -0.74900
O219        O  0.38679756  0.14372402  0.91607154    -0.87700
O220        O  0.33732910  0.08088699  0.93632957    -0.80500
C221        C  0.34521429  0.14214263  0.95667041     0.93400
C222        C  0.42132277  0.16492092  0.94816458     0.93200
Mg223      Mg  0.36961285  0.06821716  0.89921358     1.58000
O224        O  0.35505658  0.05850547  0.87121059    -0.80400
O225        O  0.38324723  0.07567104  0.92834725    -0.74700
O226        O  0.36305022  0.14504572  0.95430699    -0.80500
O227        O  0.43689581  0.16537940  0.88281117    -0.82200
O228        O  0.41919893  0.07664943  0.84389126    -0.80500
C229        C  0.38312685  0.09038122  0.93921595     0.87600
O230        O  0.39481986  0.07693035  0.88451764    -0.87700
O231        O  0.35750003  0.09633783  0.89679591    -0.87800
O232        O  0.36114926  0.10212042  0.86599897    -0.74800
Mg233      Mg  0.39054157  0.13086928  0.94363036     1.58000
O234        O  0.33702326  0.12734397  0.94940492    -0.82200
H235        H  0.44370122  0.11183668  0.92026045    -0.05900
O236        O  0.40419657  0.11440258  0.86755642    -0.87500
H237        H  0.38988762  0.13055401  0.84857347    -0.05700
H238        H  0.41047459  0.05670711  0.89761392    -0.05900
C239        C  0.39723741  0.12992362  0.86227980     0.87600
C240        C  0.42958560  0.11837067  0.92024181     0.88200
C241        C  0.41007971  0.07099598  0.89145689     0.88300
H242        H  0.33748558  0.10985076  0.88122289    -0.05900
O243        O  0.35607895  0.13957997  0.91012263    -0.74900
Mg244      Mg  0.39027984  0.08926241  0.85663211     1.58000
H245        H  0.37080990  0.16383330  0.90318501    -0.05900
C246        C  0.44190218  0.15702321  0.86725429     0.93200
O247        O  0.44277315  0.09570084  0.85425846    -0.82200
C248        C  0.43667551  0.08245562  0.84336361     0.93300
O249        O  0.40651723  0.15623849  0.95411871    -0.82100
Mg250      Mg  0.34772747  0.11012515  0.92285855     1.58200
O251        O  0.44027824  0.13892738  0.86546540    -0.80500
O252        O  0.34418488  0.05763913  0.91527935    -0.82200
C253        C  0.50002454  0.26338755  0.07175670     0.80800
N254        N  0.49090971  0.24892137  0.06214055    -0.77500
C255        C  0.49206337  0.24769640  0.04269087     0.83300
N256        N  0.50194332  0.26113682  0.03285232    -0.77400
C257        C  0.51140876  0.27536220  0.04202047     0.83300
N258        N  0.51063603  0.27649786  0.06157953    -0.79200
C259        C  0.49326216  0.24052637  0.71840833     0.80800
N260        N  0.49975831  0.25665057  0.72766644    -0.77500
C261        C  0.49732940  0.25871602  0.74699403     0.83300
N262        N  0.48870171  0.24463944  0.75703710    -0.77400
C263        C  0.48218945  0.22859077  0.74842897     0.83300
N264        N  0.48437722  0.22641046  0.72901397    -0.79200
C265        C  0.56875482  0.00496633  0.75401454     0.80800
N266        N  0.55841463  0.01678658  0.76578825    -0.77500
C267        C  0.53893941  0.01764830  0.76430741     0.83300
N268        N  0.53000666  0.00682994  0.75086239    -0.77400
C269        C  0.53987614  0.99493127  0.73914080     0.83300
N270        N  0.55939122  0.99388286  0.74071031    -0.79200
C271        C  0.93675286  0.00605192  0.24109756     0.80800
N272        N  0.94506189  0.99469447  0.25482354    -0.77500
C273        C  0.96448349  0.99328958  0.25607537     0.83300
N274        N  0.97571543  0.00314455  0.24377019    -0.77400
C275        C  0.96796981  0.01445434  0.23014885     0.83300
N276        N  0.94849827  0.01598026  0.22880349    -0.79200
C277        C  0.24879067  0.28527298  0.99668626     0.80800
N278        N  0.26540681  0.27503951  0.99388646    -0.77500
C279        C  0.26479893  0.25544792  0.99239377     0.83300
N280        N  0.24777317  0.24630374  0.99355993    -0.77400
C281        C  0.23125037  0.25593553  0.99626779     0.83300
N282        N  0.23177222  0.27541925  0.99790985    -0.79200
C283        C  0.24685821  0.92731479  0.99825543     0.80800
N284        N  0.26206115  0.93757911  0.99122399    -0.77500
C285        C  0.26177215  0.95715450  0.99163051     0.83300
N286        N  0.24633176  0.96638425  0.99888047    -0.77400
C287        C  0.23110394  0.95655489  0.00579686     0.83300
N288        N  0.23139025  0.93692513  0.00572598    -0.79200
C289        C  0.28904643  0.00750856  0.24485919     0.80800
N290        N  0.28063209  0.01148764  0.22756291    -0.77500
C291        C  0.26120005  0.01048699  0.22574941     0.83300
N292        N  0.25038734  0.00565067  0.24105268    -0.77400
C293        C  0.25836985  0.00167697  0.25824169     0.83300
N294        N  0.27784127  0.00253560  0.26026185    -0.79200
C295        C  0.00290852  0.24698520  0.93566157     0.80800
N296        N  0.99153988  0.26033206  0.94478592    -0.77500
C297        C  0.99153832  0.26164541  0.96439858     0.83300
N298        N  0.00260920  0.24970826  0.97479361    -0.77400
C299        C  0.01381792  0.23653555  0.96624580     0.83300
N300        N  0.01399850  0.23515350  0.94674226    -0.79200
C301        C  0.00003808  0.24288660  0.29130037     0.80800
N302        N  0.00810462  0.22871478  0.28024942    -0.77500
C303        C  0.00598820  0.22881083  0.26074718     0.83300
N304        N  0.99600987  0.24311441  0.25239834    -0.77400
C305        C  0.98778546  0.25715995  0.26285153     0.83300
N306        N  0.98973822  0.25712903  0.28236167    -0.79200
O307        O  0.12277726  0.09786252  0.14178327    -0.87800
C308        C  0.11921050  0.07286973  0.09007964     0.88300
Mg309      Mg  0.10027214  0.11572230  0.15165939     1.58100
O310        O  0.15181452  0.11142824  0.09069314    -0.87500
O311        O  0.15343623  0.10106676  0.13497185    -0.74800
C312        C  0.07982961  0.17204759  0.07702127     0.93300
O313        O  0.08572670  0.08282082  0.11891853    -0.74600
O314        O  0.07176388  0.16761247  0.09288428    -0.82100
Mg315      Mg  0.11397251  0.07036618  0.13096374     1.58000
C316        C  0.15155837  0.15210317  0.04835731     0.93200
O317        O  0.14135033  0.05562982  0.14351150    -0.80400
H318        H  0.17507204  0.12412104  0.10185844    -0.05700
C319        C  0.09912515  0.12255045  0.06984085     0.88200
O320        O  0.11719721  0.14279892  0.14290631    -0.74900
O321        O  0.12781716  0.07798345  0.10477345    -0.87700
O322        O  0.15444847  0.13394639  0.04957492    -0.80500
C323        C  0.16379563  0.07007330  0.06062114     0.93400
C324        C  0.15823654  0.05185384  0.13737342     0.93200
Mg325      Mg  0.12406953  0.15386585  0.08611146     1.58000
O326        O  0.09705802  0.16714007  0.07342672    -0.80400
O327        O  0.15268863  0.14223725  0.09739049    -0.74700
O328        O  0.16281361  0.06907489  0.07878102    -0.80500
O329        O  0.09677834  0.06207794  0.15779543    -0.82200
O330        O  0.07155212  0.15550004  0.13944088    -0.80500
C331        C  0.16056657  0.12579384  0.09651634     0.87600
O332        O  0.10976493  0.14771216  0.11262834    -0.87700
O333        O  0.11576250  0.12656587  0.07464498    -0.87800
O334        O  0.08484010  0.12578759  0.08077270    -0.74800
Mg335      Mg  0.15741676  0.08577717  0.10602624     1.58000
O336        O  0.15938418  0.08547924  0.05161018    -0.82200
H337        H  0.14141690  0.11004585  0.15999335    -0.05900
O338        O  0.08661689  0.11393177  0.12421193    -0.87500
H339        H  0.06397170  0.10100426  0.11205367    -0.05700
H340        H  0.12669257  0.16568357  0.12742758    -0.05900
C341        C  0.07813776  0.09943712  0.11830493     0.87600
C342        C  0.13922165  0.10297844  0.14628722     0.88200
C343        C  0.11801863  0.15273948  0.12757794     0.88300
H344        H  0.09669424  0.11567087  0.05608606    -0.05900
O345        O  0.12046186  0.08209583  0.07436920    -0.74900
Mg346      Mg  0.07978456  0.14041872  0.11016996     1.58000
H347        H  0.10994293  0.06037544  0.09074820    -0.05900
C348        C  0.08285986  0.07202514  0.16426009     0.93200
O349        O  0.07761119  0.13492314  0.16314200    -0.82200
C350        C  0.07019137  0.15042011  0.15709451     0.93300
O351        O  0.16488074  0.05943567  0.12223961    -0.82100
Mg352      Mg  0.13766059  0.10802778  0.06344817     1.58200
O353        O  0.08228203  0.09016801  0.16193630    -0.80500
O354        O  0.13960920  0.16091641  0.05894989    -0.82200
O355        O  0.42009444  0.87319921  0.61225222    -0.87800
C356        C  0.36847138  0.84687499  0.61279050     0.88300
Mg357      Mg  0.43016863  0.88976706  0.63594963     1.58100
O358        O  0.37019875  0.88814271  0.58371768    -0.87500
O359        O  0.41405574  0.87699324  0.58148534    -0.74800
C360        C  0.35537305  0.94385933  0.66029458     0.93300
O361        O  0.39738341  0.85549258  0.64762173    -0.74600
O362        O  0.37085904  0.93854546  0.66853137    -0.82100
Mg363      Mg  0.40999749  0.84490707  0.61871553     1.58000
C364        C  0.32910420  0.93012524  0.58625400     0.93200
O365        O  0.42346171  0.83321447  0.58943021    -0.80400
H366        H  0.38279777  0.90255459  0.56226619    -0.05700
C367        C  0.34915813  0.89555869  0.63735488     0.88200
O368        O  0.42160685  0.91773760  0.62094349    -0.74900
O369        O  0.38341667  0.85250635  0.60494889    -0.87700
O370        O  0.33004532  0.91211716  0.58250776    -0.80500
C371        C  0.33839665  0.84944809  0.56734744     0.93400
C372        C  0.41737312  0.83045164  0.57220464     0.93200
Mg373      Mg  0.36565165  0.92883940  0.61501927     1.58000
O374        O  0.35251627  0.94034457  0.64257079    -0.80400
O375        O  0.37760322  0.91879986  0.58594634    -0.74700
O376        O  0.35648409  0.84690484  0.56874394    -0.80500
O377        O  0.43684408  0.83619965  0.63667063    -0.82200
O378        O  0.41794687  0.92767102  0.66808866    -0.80500
C379        C  0.37678649  0.90308801  0.57661224     0.87600
O380        O  0.39156768  0.92184014  0.62933073    -0.87700
O381        O  0.35417028  0.90088909  0.62112534    -0.87800
O382        O  0.35975540  0.89785903  0.65208804    -0.74800
Mg383      Mg  0.38479771  0.86246126  0.57604394     1.58000
O384        O  0.33049007  0.86485951  0.57343902    -0.82200
H385        H  0.43873391  0.88580999  0.59433892    -0.05900
O386        O  0.40302819  0.88663189  0.64986883    -0.87500
H387        H  0.39019382  0.87169107  0.67083733    -0.05700
H388        H  0.40602286  0.94134778  0.61390020    -0.05900
C389        C  0.39679145  0.87139317  0.65674906     0.87600
C390        C  0.42497251  0.87875129  0.59605520     0.88200
C391        C  0.40635308  0.92770074  0.62139446     0.88300
H392        H  0.33547309  0.88831231  0.63900203    -0.05900
O393        O  0.35298344  0.85656154  0.61222289    -0.74900
Mg394      Mg  0.38882182  0.91245566  0.65869427     1.58000
H395        H  0.36869550  0.83348890  0.62075583    -0.05900
C396        C  0.44300957  0.84558084  0.65128001     0.93200
O397        O  0.44150090  0.90781952  0.65979586    -0.82200
C398        C  0.43569921  0.92280658  0.66844022     0.93300
O399        O  0.40096874  0.83632222  0.56679276    -0.82100
Mg400      Mg  0.34284170  0.88452945  0.59741222     1.58200
O401        O  0.44057280  0.86358509  0.65223801    -0.80500
O402        O  0.33916391  0.93771039  0.59944876    -0.82200
O403        O  0.11533671  0.90548776  0.34091756    -0.87800
C404        C  0.12141085  0.93197423  0.39273916     0.88300
Mg405      Mg  0.09079637  0.88825940  0.33454292     1.58100
O406        O  0.15056825  0.89137018  0.38716460    -0.87500
O407        O  0.14658090  0.90178384  0.34323739    -0.74800
C408        C  0.07731856  0.83509422  0.41346239     0.93300
O409        O  0.08246040  0.92296981  0.36809879    -0.74600
O410        O  0.06738589  0.84100939  0.39926276    -0.82100
Mg411      Mg  0.10944410  0.93368455  0.35232514     1.58000
C412        C  0.15524594  0.84960113  0.42832144     0.93200
O413        O  0.13535906  0.94757946  0.33594006    -0.80400
H414        H  0.17031152  0.87669513  0.37229246    -0.05700
C415        C  0.10084159  0.88481801  0.41571076     0.88200
O416        O  0.10710608  0.86062993  0.34229475    -0.74900
O417        O  0.12674967  0.92602603  0.37682485    -0.87700
O418        O  0.15908906  0.86750994  0.42606683    -0.80500
C419        C  0.17064161  0.93094073  0.41537155     0.93400
C420        C  0.15291864  0.95126816  0.33986277     0.93200
Mg421      Mg  0.12077048  0.85064586  0.39772835     1.58000
O422        O  0.09517778  0.83889870  0.41442034    -0.80400
O423        O  0.14797341  0.86041662  0.38167115    -0.74700
O424        O  0.16607340  0.93349639  0.39782224    -0.80500
O425        O  0.08896517  0.94205822  0.32777303    -0.82200
O426        O  0.06223774  0.85043197  0.35243266    -0.80500
C427        C  0.15696563  0.87627450  0.38026939     0.87600
O428        O  0.10340351  0.85739127  0.37346379    -0.87700
O429        O  0.11629712  0.87869863  0.40933680    -0.87800
O430        O  0.08498641  0.88244809  0.40687920    -0.74800
Mg431      Mg  0.15549602  0.91700463  0.37122077     1.58000
O432        O  0.16683494  0.91518577  0.42400768    -0.82200
H433        H  0.13084365  0.89250297  0.32047662    -0.05900
O434        O  0.08076737  0.89185199  0.36326503    -0.87500
H435        H  0.06046565  0.90629458  0.37756473    -0.05700
H436        H  0.11703102  0.83776929  0.35746390    -0.05900
C437        C  0.07389509  0.90691085  0.36973977     0.87600
C438        C  0.13081732  0.89986937  0.33419508     0.88200
C439        C  0.10925248  0.85123621  0.35782259     0.88300
H440        H  0.10088022  0.89287280  0.42903551    -0.05900
O441        O  0.12485488  0.92281383  0.40822169    -0.74900
Mg442      Mg  0.07463975  0.86665436  0.37953737     1.58000
H443        H  0.11329072  0.94523146  0.39348513    -0.05900
C444        C  0.07430529  0.93236479  0.32258218     0.93200
O445        O  0.06558281  0.86971309  0.32696905    -0.82200
C446        C  0.05882921  0.85469855  0.33482651     0.93300
O447        O  0.16164436  0.94331524  0.35376055    -0.82100
Mg448      Mg  0.14153174  0.89514458  0.41626588     1.58200
O449        O  0.07343473  0.91428326  0.32521003    -0.80500
O450        O  0.13960866  0.84223405  0.42251486    -0.82200
C451        C  0.99938534  0.76053663  0.55455001     0.80800
N452        N  0.98495430  0.75138875  0.54476386    -0.77500
C453        C  0.98472959  0.75135370  0.52516769     0.83300
N454        N  0.99919053  0.75983178  0.51547369    -0.77400
C455        C  0.01381460  0.76855966  0.52473499     0.83300
N456        N  0.01390556  0.76912450  0.54436205    -0.79200
C457        C  0.25210753  0.06472404  0.50051949     0.80800
N458        N  0.26201767  0.05290760  0.51272795    -0.77500
C459        C  0.25929285  0.03349444  0.51233543     0.83300
N460        N  0.24700685  0.02587949  0.49942413    -0.77400
C461        C  0.23725162  0.03705115  0.48695194     0.83300
N462        N  0.23969812  0.05654197  0.48750346    -0.79200
C463        C  0.24579718  0.71384512  0.49832307     0.80800
N464        N  0.25783816  0.72219051  0.51156830    -0.77500
C465        C  0.25843126  0.74167235  0.51367678     0.83300
N466        N  0.24734408  0.75272656  0.50240114    -0.77400
C467        C  0.23598890  0.74526200  0.48865368     0.83300
N468        N  0.23485450  0.72564641  0.48681890    -0.79200
C469        C  0.00067721  0.75074792  0.20271646     0.80800
N470        N  0.99446594  0.73443560  0.21198428    -0.77500
C471        C  0.99476621  0.73348680  0.23160805     0.83300
N472        N  0.00134273  0.74867495  0.24168124    -0.77400
C473        C  0.00750849  0.76495073  0.23309488     0.83300
N474        N  0.00717101  0.76601140  0.21346014    -0.79200
C475        C  0.21855625  0.00433118  0.75613719     0.80800
N476        N  0.22929416  0.01047103  0.77150729    -0.77500
C477        C  0.24888370  0.01013363  0.77058228     0.83300
N478        N  0.25745388  0.00360755  0.75446523    -0.77400
C479        C  0.24724266  0.99751800  0.73919986     0.83300
N480        N  0.22768092  0.99768567  0.73999919    -0.79200
C481        C  0.74820786  0.20744759  0.99947949     0.80800
N482        N  0.73302263  0.21850999  0.99372562    -0.77500
C483        C  0.73402286  0.23804589  0.99454813     0.83300
N484        N  0.75044481  0.24650072  0.00041954    -0.77400
C485        C  0.76572338  0.23601136  0.00606496     0.83300
N486        N  0.76462106  0.21640231  0.00578338    -0.79200
C487        C  0.49228343  0.74663393  0.79053176     0.80800
N488        N  0.49538113  0.72981571  0.78079765    -0.77500
C489        C  0.49199755  0.72866878  0.76149195     0.83300
N490        N  0.48599698  0.74450018  0.75201886    -0.77400
C491        C  0.48297565  0.76125943  0.76132513     0.83300
N492        N  0.48611395  0.76240545  0.78060923    -0.79200
C493        C  0.49528603  0.74596916  0.43640371     0.80800
N494        N  0.48487868  0.75993391  0.44569112    -0.77500
C495        C  0.48471975  0.76074260  0.46531529     0.83300
N496        N  0.49476521  0.74770916  0.47547731    -0.77400
C497        C  0.50496904  0.73381434  0.46677601     0.83300
N498        N  0.50522533  0.73280538  0.44719239    -0.79200
C499        C  0.74200484  0.79345445  0.48937488     0.80800
N500        N  0.72568383  0.78476344  0.49624483    -0.77500
C501        C  0.72397186  0.76517670  0.49579596     0.83300
N502        N  0.73852266  0.75447284  0.48873762    -0.77400
C503        C  0.75476935  0.76273210  0.48213175     0.83300
N504        N  0.75648435  0.78224285  0.48226293    -0.79200
C505        C  0.44184945  0.50362279  0.75317743     0.80800
N506        N  0.45134179  0.51578805  0.74098603    -0.77500
C507        C  0.47086873  0.51573041  0.74038998     0.83300
N508        N  0.48072302  0.50350254  0.75168867    -0.77400
C509        C  0.47167712  0.49152700  0.76398271     0.83300
N510        N  0.45211148  0.49153250  0.76480527    -0.79200
C511        C  0.79379023  0.49898560  0.74789953     0.80800
N512        N  0.78459514  0.50703815  0.73245907    -0.77500
C513        C  0.76505420  0.50669199  0.73140175     0.83300
N514        N  0.75486173  0.49853103  0.74573618    -0.77400
C515        C  0.76358698  0.49096952  0.76126551     0.83300
N516        N  0.78310326  0.49108734  0.76239373    -0.79200
C517        C  0.74835135  0.43645673  0.50256530     0.80800
N518        N  0.73532211  0.44633609  0.51358036    -0.77500
C519        C  0.73445364  0.46591775  0.51272091     0.83300
N520        N  0.74641498  0.47553602  0.50095509    -0.77400
C521        C  0.75931382  0.46627906  0.48992434     0.83300
N522        N  0.76036329  0.44664502  0.49063829    -0.79200
C523        C  0.71339728  0.50538254  0.24376696     0.80800
N524        N  0.72296045  0.51260264  0.25941831    -0.77500
C525        C  0.74252320  0.51317074  0.25963232     0.83300
N526        N  0.75244899  0.50650082  0.24439424    -0.77400
C527        C  0.74342099  0.49950761  0.22876073     0.83300
N528        N  0.72388074  0.49877827  0.22849928    -0.79200
O529        O  0.08639435  0.38251807  0.63314316    -0.87800
C530        C  0.13888188  0.38624475  0.65890935     0.88300
Mg531      Mg  0.07689614  0.35890115  0.61563949     1.58100
O532        O  0.13212532  0.41571997  0.61914747    -0.87500
O533        O  0.08890873  0.41393159  0.63152225    -0.74800
C534        C  0.15108089  0.34265185  0.55719227     0.93300
O535        O  0.11311882  0.34896330  0.64928605    -0.74600
O536        O  0.13681100  0.33493349  0.56552288    -0.82100
Mg537      Mg  0.09863026  0.37628357  0.66063007     1.58000
C538        C  0.17159243  0.42224350  0.57676525     0.93200
O539        O  0.08291942  0.40192315  0.67345609    -0.80400
H540        H  0.11752222  0.43618605  0.60521116    -0.05700
C541        C  0.15929850  0.36456273  0.60816312     0.88200
O542        O  0.08589497  0.37591087  0.58874531    -0.74900
O543        O  0.12324292  0.39327397  0.65418782    -0.87700
O544        O  0.16903675  0.42297145  0.59486894    -0.80500
C545        C  0.16379787  0.43644621  0.65460513     0.93400
C546        C  0.08401159  0.41968523  0.67771691     0.93200
Mg547      Mg  0.14142565  0.38726264  0.57551847     1.58000
O548        O  0.15612473  0.36011487  0.56061587    -0.80400
O549        O  0.12680687  0.41449958  0.58796914    -0.74700
O550        O  0.14629566  0.43455923  0.66014914    -0.80500
O551        O  0.07350132  0.35816301  0.66842682    -0.82200
O552        O  0.09310351  0.33255364  0.57714249    -0.80500
C553        C  0.12530879  0.42273570  0.60427368     0.87600
O554        O  0.11656894  0.37092842  0.58343005    -0.87700
O555        O  0.15287382  0.38038903  0.60319150    -0.87800
O556        O  0.14956682  0.34916389  0.60650797    -0.74800
Mg557      Mg  0.11756866  0.42254338  0.64568672     1.58000
O558        O  0.16985476  0.42806942  0.63959749    -0.82200
H559        H  0.06567078  0.39902462  0.62205683    -0.05900
O560        O  0.10550353  0.34720390  0.61864540    -0.87500
H561        H  0.12029834  0.32654568  0.63205564    -0.05700
H562        H  0.10037463  0.38697714  0.56597171    -0.05900
C563        C  0.11294053  0.34020932  0.63323054     0.87600
C564        C  0.07967222  0.39838730  0.62880044     0.88200
C565        C  0.10101845  0.37811074  0.57875182     0.88300
H566        H  0.17338031  0.36390686  0.61475882    -0.05900
O567        O  0.15367194  0.38742023  0.64824389    -0.74900
Mg568      Mg  0.12058088  0.34180719  0.59242993     1.58000
H569        H  0.13976204  0.37808303  0.67213620    -0.05900
C570        C  0.06320329  0.34538439  0.66044745     0.93200
O571        O  0.06643886  0.33517998  0.59456428    -0.82200
C572        C  0.07513965  0.33005672  0.57921940     0.93300
O573        O  0.09864643  0.42963853  0.67261536    -0.82100
Mg574      Mg  0.16054391  0.40431916  0.62074470     1.58200
O575        O  0.06417806  0.34214675  0.64233502    -0.80500
O576        O  0.16660539  0.40747242  0.56701127    -0.82200
O577        O  0.65230698  0.10966377  0.37231884    -0.87800
C578        C  0.60200060  0.08019802  0.36520207     0.88300
Mg579      Mg  0.66174204  0.12289678  0.39821744     1.58100
O580        O  0.60204755  0.12616439  0.34511914    -0.87500
O581        O  0.64649380  0.11880430  0.34266732    -0.74800
C582        C  0.58509304  0.17106059  0.42987218     0.93300
O583        O  0.62865179  0.08578047  0.40301988    -0.74600
O584        O  0.60105661  0.16340298  0.43416590    -0.82100
Mg585      Mg  0.64215898  0.08082107  0.37330218     1.58000
C586        C  0.55670077  0.16249629  0.35183254     0.93200
O587        O  0.65673888  0.07454800  0.34471205    -0.80400
H588        H  0.61205717  0.14537212  0.32620146    -0.05700
C589        C  0.57921168  0.12332374  0.39961792     0.88200
O590        O  0.64948254  0.15159744  0.38654474    -0.74900
O591        O  0.61637253  0.08857989  0.35899380    -0.87700
O592        O  0.56124806  0.14545752  0.34726525    -0.80500
C593        C  0.57368807  0.09362378  0.31735905     0.93400
C594        C  0.65463739  0.07461946  0.32655150     0.93200
Mg595      Mg  0.59147163  0.16161488  0.38216711     1.58000
O596        O  0.57831337  0.16993047  0.41275325    -0.80400
O597        O  0.60389377  0.15696289  0.35173162    -0.74700
O598        O  0.59171472  0.08984348  0.31755406    -0.80500
O599        O  0.66846365  0.07100987  0.38888709    -0.82200
O600        O  0.64546766  0.15669247  0.43022555    -0.80500
C601        C  0.60608597  0.14281698  0.34034812     0.87600
O602        O  0.61881352  0.15337705  0.39406920    -0.87700
O603        O  0.58337214  0.13161921  0.38442267    -0.87800
O604        O  0.59014543  0.12387314  0.41428063    -0.74800
Mg605      Mg  0.61905358  0.10386624  0.33214138     1.58000
O606        O  0.56589545  0.10427310  0.32999660    -0.82200
H607        H  0.66999960  0.12701812  0.35779487    -0.05900
O608        O  0.63445224  0.11600365  0.41049395    -0.87500
H609        H  0.62172032  0.09775722  0.42870904    -0.05700
H610        H  0.63242386  0.17432061  0.37980165    -0.05900
C611        C  0.62832248  0.09981739  0.41477032     0.87600
C612        C  0.65692122  0.11858925  0.35764813     0.88200
C613        C  0.63341340  0.16036478  0.38666205     0.88300
H614        H  0.56609407  0.11495712  0.40030394    -0.05900
O615        O  0.58607131  0.08875187  0.36731190    -0.74900
Mg616      Mg  0.61841517  0.13970218  0.42145191     1.58000
H617        H  0.60330624  0.06541237  0.36989486    -0.05900
C618        C  0.67782523  0.07671582  0.40344344     0.93200
O619        O  0.67227713  0.14026264  0.42440208    -0.82200
C620        C  0.66361228  0.15486565  0.43135921     0.93300
O621        O  0.63950355  0.08128859  0.31856588    -0.82100
Mg622      Mg  0.57507501  0.11814049  0.35777793     1.58200
O623        O  0.67593477  0.09392144  0.40995435    -0.80500
O624        O  0.56346037  0.17060374  0.36686945    -0.82200
C625        C  0.49891732  0.23851133  0.57078226     0.80800
N626        N  0.51343890  0.22928754  0.56116075    -0.77500
C627        C  0.51470554  0.23035694  0.54161978     0.83300
N628        N  0.50162713  0.24054919  0.53181337    -0.77400
C629        C  0.48690918  0.24948069  0.54061816     0.83300
N630        N  0.48558879  0.24872228  0.56027519    -0.79200
O631        O  0.38793212  0.35258900  0.40983903    -0.87800
C632        C  0.38495114  0.40425237  0.43770622     0.88300
Mg633      Mg  0.41296737  0.34437377  0.39347646     1.58100
O634        O  0.35711610  0.40122242  0.39599374    -0.87500
O635        O  0.35695308  0.35711014  0.40596349    -0.74800
C636        C  0.43450097  0.42292567  0.34339681     0.93300
O637        O  0.42171103  0.37661010  0.43047203    -0.74600
O638        O  0.44105211  0.40748891  0.35056027    -0.82100
Mg639      Mg  0.39282992  0.36299536  0.43850797     1.58000
C640        C  0.35456141  0.44327261  0.35551764     0.93200
O641        O  0.36563125  0.34850343  0.45003852    -0.80400
H642        H  0.33703594  0.38799359  0.38018811    -0.05700
C643        C  0.40864425  0.42760116  0.39082850     0.88200
O644        O  0.39846621  0.35513745  0.36569190    -0.74900
O645        O  0.37780755  0.38905604  0.43173046    -0.87700
O646        O  0.35299630  0.44008944  0.37345584    -0.80500
C647        C  0.33645804  0.43134044  0.43320263     0.93400
C648        C  0.34807881  0.35180457  0.45383334     0.93200
Mg649      Mg  0.38843593  0.41182043  0.35538496     1.58000
O650        O  0.41671218  0.42745298  0.34474653    -0.80400
O651        O  0.36005677  0.39714556  0.36471536    -0.74700
O652        O  0.33802680  0.41342104  0.43716136    -0.80500
O653        O  0.40894733  0.33603769  0.44590721    -0.82200
O654        O  0.44228264  0.36345406  0.35918910    -0.80500
C655        C  0.35076590  0.39532750  0.38040908     0.87600
O656        O  0.40368435  0.38621496  0.36324936    -0.87700
O657        O  0.39329630  0.42176770  0.38403086    -0.87800
O658        O  0.42380471  0.41750265  0.39043427    -0.74800
Mg659      Mg  0.34884532  0.38542941  0.42134091     1.58000
O660        O  0.34440369  0.43882912  0.41859864    -0.82200
H661        H  0.37124499  0.33370155  0.39595247    -0.05900
O662        O  0.42403662  0.37261128  0.39939933    -0.87500
H663        H  0.44518182  0.38431289  0.41496368    -0.05700
H664        H  0.38970748  0.37127782  0.34301976    -0.05900
C665        C  0.43102424  0.37785484  0.41485266     0.87600
C666        C  0.37212414  0.34715560  0.40375700     0.88200
C667        C  0.39718989  0.37099307  0.35666953     0.88300
H668        H  0.40892703  0.44134269  0.39815429    -0.05900
O669        O  0.38408109  0.41985692  0.42818369    -0.74900
Mg670      Mg  0.43176365  0.38951121  0.37520746     1.58000
H671        H  0.39270624  0.40411973  0.45119869    -0.05900
C672        C  0.42260236  0.32692883  0.43792196     0.93200
O673        O  0.43857628  0.33568049  0.37412282    -0.82200
C674        C  0.44513885  0.34544643  0.36005646     0.93300
O675        O  0.33949607  0.36659311  0.44715464    -0.82100
Mg676      Mg  0.36895992  0.42931257  0.40028175     1.58200
O677        O  0.42772508  0.33013419  0.42051900    -0.80500
O678        O  0.36946181  0.43762128  0.34638284    -0.82200
C679        C  0.56682382  0.50138093  0.25681248     0.80800
N680        N  0.55789782  0.49222591  0.27173264    -0.77500
C681        C  0.53847166  0.49260187  0.27350626     0.83300
N682        N  0.52785856  0.50147630  0.26004643    -0.77400
C683        C  0.53614441  0.51040424  0.24499308     0.83300
N684        N  0.55565926  0.51043473  0.24332019    -0.79200
C685        C  0.49960340  0.74825392  0.93757648     0.80800
N686        N  0.49090652  0.73302260  0.94669586    -0.77500
C687        C  0.49059941  0.73194553  0.96630559     0.83300
N688        N  0.49870711  0.74608734  0.97677627    -0.77400
C689        C  0.50721453  0.76123801  0.96821878     0.83300
N690        N  0.50780046  0.76227869  0.94867428    -0.79200
O691        O  0.38725726  0.63725926  0.09999688    -0.87800
C692        C  0.37838640  0.58419739  0.07703712     0.88300
Mg693      Mg  0.41281671  0.64490992  0.11537022     1.58100
O694        O  0.35234726  0.59279735  0.11901975    -0.87500
O695        O  0.35616983  0.63587089  0.10553133    -0.74800
C696        C  0.42747021  0.57188238  0.17479455     0.93300
O697        O  0.41742261  0.60729251  0.08285035    -0.74600
O698        O  0.43503748  0.58634957  0.16675735    -0.82100
Mg699      Mg  0.39040400  0.62331741  0.07278478     1.58000
C700        C  0.34776184  0.55356611  0.16238429     0.93200
O701        O  0.36442450  0.64009391  0.06115069    -0.80400
H702        H  0.33268531  0.60788113  0.13359214    -0.05700
C703        C  0.40221340  0.56333373  0.12688935     0.88200
O704        O  0.39672850  0.63859864  0.14389409    -0.74900
O705        O  0.37278642  0.60028992  0.08213352    -0.87700
O706        O  0.34680097  0.55540970  0.14426353    -0.80500
C707        C  0.32856792  0.56204437  0.08461722     0.93400
C708        C  0.34624373  0.63931539  0.05891237     0.93200
Mg709      Mg  0.38262957  0.58364538  0.16033123     1.58000
O710        O  0.40967334  0.56771520  0.17288389    -0.80400
O711        O  0.35510673  0.59884815  0.14992007    -0.74700
O712        O  0.33124674  0.57950444  0.07942203    -0.80500
O713        O  0.41020229  0.64627985  0.06183579    -0.82200
O714        O  0.43867396  0.62856919  0.15323646    -0.80500
C715        C  0.34607356  0.59998302  0.13405377     0.87600
O716        O  0.39927254  0.60763904  0.15004078    -0.87700
O717        O  0.38717714  0.57089789  0.13251163    -0.87800
O718        O  0.41811089  0.57226762  0.12716796    -0.74800
Mg719      Mg  0.34486069  0.60743888  0.09279818     1.58000
O720        O  0.33660070  0.55513647  0.09949364    -0.82200
H721        H  0.37289436  0.65873173  0.11261246    -0.05900
O722        O  0.42120719  0.61530895  0.11316850    -0.87500
H723        H  0.44001925  0.59871248  0.09915060    -0.05700
H724        H  0.38577613  0.62581771  0.16777824    -0.05900
C725        C  0.42690130  0.60702363  0.09847612     0.87600
C726        C  0.37223286  0.64460700  0.10607012     0.88200
C727        C  0.39373683  0.62397108  0.15453560     0.88300
H728        H  0.40168640  0.54895763  0.12091395    -0.05900
O729        O  0.37713472  0.56959590  0.08792808    -0.74900
Mg730      Mg  0.42739500  0.60135827  0.13961545     1.58000
H731        H  0.38535489  0.58269451  0.06320586    -0.05900
C732        C  0.42552896  0.65369423  0.06849825     0.93200
O733        O  0.43859296  0.65418740  0.13462656    -0.82200
C734        C  0.44314131  0.64597074  0.15044099     0.93300
O735        O  0.33655242  0.62549232  0.06612624    -0.82100
Mg736      Mg  0.36229658  0.56372307  0.11670937     1.58200
O737        O  0.42948130  0.65308031  0.08653914    -0.80500
O738        O  0.36252920  0.55957674  0.17148500    -0.82200
C739        C  0.24754784  0.56583803  0.50410989     0.80800
N740        N  0.26180099  0.55464296  0.49649512    -0.77500
C741        C  0.26243592  0.53537198  0.49994142     0.83300
N742        N  0.24839725  0.52714309  0.51040959    -0.77400
C743        C  0.23402419  0.53761119  0.51800837     0.83300
N744        N  0.23349055  0.55705287  0.51491936    -0.79200
O745        O  0.57281658  0.88878032  0.13063642    -0.87800
C746        C  0.62592359  0.89384781  0.15475921     0.88300
Mg747      Mg  0.56310300  0.86458577  0.11434687     1.58100
O748        O  0.61794458  0.92160538  0.11379074    -0.87500
O749        O  0.57511430  0.92008160  0.12760313    -0.74800
C750        C  0.63623125  0.84534056  0.05641258     0.93300
O751        O  0.59997603  0.85582676  0.14743865    -0.74600
O752        O  0.62147867  0.83826546  0.06443797    -0.82100
Mg753      Mg  0.58576183  0.88357720  0.15801572     1.58000
C754        C  0.65628118  0.92516801  0.07001798     0.93200
O755        O  0.57046906  0.90967743  0.17002790    -0.80400
H756        H  0.60253569  0.94110677  0.09936618    -0.05700
C757        C  0.64471756  0.87002796  0.10490215     0.88200
O758        O  0.57076165  0.88046709  0.08639414    -0.74900
O759        O  0.61011457  0.90047284  0.15007325    -0.87700
O760        O  0.65465661  0.92708669  0.08813053    -0.80500
C761        C  0.65042879  0.94455395  0.14680090     0.93400
C762        C  0.57162237  0.92760877  0.17344139     0.93200
Mg763      Mg  0.62576084  0.89083398  0.07162643     1.58000
O764        O  0.64072478  0.86311753  0.05852081    -0.80400
O765        O  0.61127399  0.91855367  0.08298422    -0.74700
O766        O  0.63324631  0.94265569  0.15335102    -0.80500
O767        O  0.56093258  0.86535916  0.16750895    -0.82200
O768        O  0.57830634  0.83726827  0.07643177    -0.80500
C769        C  0.61042715  0.92770559  0.09884562     0.87600
O770        O  0.60132883  0.87512700  0.08086371    -0.87700
O771        O  0.63806588  0.88553502  0.09928462    -0.87800
O772        O  0.63507962  0.85450982  0.10417619    -0.74800
Mg773      Mg  0.60415905  0.92938928  0.14045119     1.58000
O774        O  0.65617083  0.93503999  0.13240311    -0.82200
H775        H  0.55164441  0.90470981  0.11956037    -0.05900
O776        O  0.59167708  0.85331405  0.11705723    -0.87500
H777        H  0.60650722  0.83283958  0.13070478    -0.05700
H778        H  0.58479577  0.88998008  0.06265562    -0.05900
C779        C  0.59934205  0.84661808  0.13165792     0.87600
C780        C  0.56586740  0.90441404  0.12585925     0.88200
C781        C  0.58567364  0.88195341  0.07596438     0.88300
H782        H  0.65891853  0.86979551  0.11123355    -0.05900
O783        O  0.64044218  0.89476928  0.14372774    -0.74900
Mg784      Mg  0.60588321  0.84664240  0.09098317     1.58000
H785        H  0.62721526  0.88632141  0.16832113    -0.05900
C786        C  0.55176868  0.85157576  0.15976665     0.93200
O787        O  0.55235561  0.84006655  0.09491103    -0.82200
C788        C  0.56053164  0.83458429  0.07944768     0.93300
O789        O  0.58614198  0.93727180  0.16756378    -0.82100
Mg790      Mg  0.64642465  0.91021870  0.11521980     1.58200
O791        O  0.55250193  0.84837029  0.14169239    -0.80500
O792        O  0.65027808  0.91020485  0.06128056    -0.82200
C793        C  0.73671630  0.71038120  0.99676605     0.80800
N794        N  0.72171433  0.72070289  0.00449442    -0.77500
C795        C  0.72073263  0.74024189  0.00185711     0.83300
N796        N  0.73464807  0.74901623  0.99157593    -0.77400
C797        C  0.74952175  0.73926902  0.98388749     0.83300
N798        N  0.75051842  0.71983555  0.98638893    -0.79200
O799        O  0.88756138  0.14226403  0.60408606    -0.87800
C800        C  0.87862934  0.09160473  0.57748046     0.88300
Mg801      Mg  0.91471147  0.14917824  0.61675596     1.58100
O802        O  0.85618977  0.09605618  0.62190991    -0.87500
O803        O  0.85712064  0.13993039  0.61198729    -0.74800
C804        C  0.93719117  0.07277419  0.66977251     0.93300
O805        O  0.91644448  0.11592251  0.58065994    -0.74600
O806        O  0.94391704  0.08677924  0.66014212    -0.82100
Mg807      Mg  0.88796604  0.13201382  0.57539604     1.58000
C808        C  0.85524256  0.05485479  0.66295062     0.93200
O809        O  0.86039661  0.14907881  0.56872253    -0.80400
H810        H  0.83789972  0.10970137  0.63938948    -0.05700
C811        C  0.90699930  0.06671393  0.62342570     0.88200
O812        O  0.90214677  0.14066231  0.64636750    -0.74900
O813        O  0.87233992  0.10706416  0.58373582    -0.87700
O814        O  0.85255639  0.05771697  0.64503812    -0.80500
C815        C  0.82965099  0.06693312  0.58772022     0.93400
C816        C  0.84219360  0.14723134  0.56776004     0.93200
Mg817      Mg  0.89044875  0.08459221  0.65988094     1.58000
O818        O  0.91914710  0.06891797  0.66990485    -0.80400
O819        O  0.86190840  0.09991805  0.65275098    -0.74700
O820        O  0.83106816  0.08482165  0.58352504    -0.80500
O821        O  0.90517283  0.15744465  0.56566588    -0.82200
O822        O  0.94479918  0.13102112  0.64984449    -0.80500
C823        C  0.85135486  0.10203281  0.63796478     0.87600
O824        O  0.90594131  0.10936264  0.64979261    -0.87700
O825        O  0.89257989  0.07375914  0.63103049    -0.87800
O826        O  0.92270713  0.07591410  0.62228066    -0.74800
Mg827      Mg  0.84543261  0.11219703  0.59784583     1.58000
O828        O  0.83970968  0.05959371  0.60106134    -0.82200
H829        H  0.87419911  0.16233240  0.61976695    -0.05900
O830        O  0.92300961  0.12009965  0.61126433    -0.87500
H831        H  0.94061179  0.10584458  0.59353368    -0.05700
H832        H  0.89435036  0.12586673  0.67031429    -0.05900
C833        C  0.92734820  0.11379386  0.59518750     0.87600
C834        C  0.87310432  0.14882206  0.61208574     0.88200
C835        C  0.90072127  0.12520273  0.65613084     0.88300
H836        H  0.90594847  0.05265557  0.61679947    -0.05900
O837        O  0.87892840  0.07632897  0.58755802    -0.74900
Mg838      Mg  0.93278812  0.10427784  0.63554003     1.58000
H839        H  0.88487290  0.09129420  0.56323323    -0.05900
C840        C  0.92230625  0.16150079  0.57030709     0.93200
O841        O  0.94229139  0.15761430  0.63278157    -0.82200
C842        C  0.94827374  0.14884211  0.64766408     0.93300
O843        O  0.83387775  0.13200969  0.57380211    -0.82100
Mg844      Mg  0.86638658  0.06758254  0.61683647     1.58200
O845        O  0.92860144  0.15859275  0.58733996    -0.80500
O846        O  0.87113877  0.05961080  0.67083123    -0.82200
C847        C  0.71471395  0.00889225  0.76248539     0.80800
N848        N  0.72398798  0.01517504  0.74627591    -0.77500
C849        C  0.74349814  0.01678340  0.74612036     0.83300
N850        N  0.75360539  0.01197322  0.76188159    -0.77400
C851        C  0.74481340  0.00571077  0.77794490     0.83300
N852        N  0.72535121  0.00377278  0.77818789    -0.79200
O853        O  0.87885413  0.84788653  0.89283435    -0.87800
C854        C  0.87675314  0.89522714  0.92735682     0.88300
Mg855      Mg  0.90352221  0.83977316  0.87659455     1.58100
O856        O  0.85192612  0.89983870  0.88410753    -0.87500
O857        O  0.84864421  0.85512492  0.88746942    -0.74800
C858        C  0.93237746  0.92165417  0.83670009     0.93300
O859        O  0.91230598  0.86792655  0.91680739    -0.74600
O860        O  0.93730179  0.90469399  0.84112017    -0.82100
Mg861      Mg  0.88259810  0.85468657  0.92236852     1.58000
C862        C  0.85426633  0.94729694  0.85067957     0.93200
O863        O  0.85412419  0.83970079  0.92973920    -0.80400
H864        H  0.83110949  0.89142005  0.86613383    -0.05700
C865        C  0.90598650  0.92217433  0.88444545     0.88200
O866        O  0.88979742  0.85505953  0.85048285    -0.74900
O867        O  0.86905304  0.88173713  0.91866514    -0.87700
O868        O  0.85223935  0.94147157  0.86780529    -0.80500
C869        C  0.82994156  0.92577603  0.92265863     0.93400
C870        C  0.83630501  0.84301895  0.93209403     0.93200
Mg871      Mg  0.88530077  0.91362557  0.84672099     1.58000
O872        O  0.91517489  0.92778407  0.83892666    -0.80400
O873        O  0.85536431  0.90059725  0.85272028    -0.74700
O874        O  0.82989113  0.90745909  0.92473037    -0.80500
O875        O  0.89767241  0.82725724  0.92725376    -0.82200
O876        O  0.93298615  0.85976472  0.84321207    -0.80500
C877        C  0.84547381  0.89719864  0.86772968     0.87600
O878        O  0.89763845  0.88576440  0.85156908    -0.87700
O879        O  0.89030530  0.91879509  0.87674916    -0.87800
O880        O  0.92035058  0.91109419  0.88237380    -0.74800
Mg881      Mg  0.84088485  0.88128485  0.90615062     1.58000
O882        O  0.84061285  0.93420761  0.91056223    -0.82200
H883        H  0.86217342  0.83231865  0.87533373    -0.05900
O884        O  0.91649412  0.86611484  0.88557940    -0.87500
H885        H  0.93698992  0.87567687  0.90333238    -0.05700
H886        H  0.88148164  0.87467602  0.83053537    -0.05900
C887        C  0.92263497  0.86985150  0.90185944     0.87600
C888        C  0.86326254  0.84447853  0.88501321     0.88200
C889        C  0.88945673  0.87205564  0.84363566     0.88300
H890        H  0.90730316  0.93456050  0.89379781    -0.05900
O891        O  0.87818736  0.91191192  0.92006785    -0.74900
Mg892      Mg  0.92591647  0.88469985  0.86332445     1.58000
H893        H  0.88322539  0.89250821  0.94124810    -0.05900
C894        C  0.91205975  0.81889449  0.91981168     0.93200
O895        O  0.92814296  0.83114413  0.85633694    -0.82200
C896        C  0.93396356  0.84155410  0.84238484     0.93300
O897        O  0.82891818  0.85934379  0.92809512    -0.82100
Mg898      Mg  0.86572115  0.92587797  0.89300339     1.58200
O899        O  0.91757915  0.82265950  0.90262440    -0.80500
O900        O  0.86898161  0.94219372  0.84093735    -0.82200
O901        O  0.08476554  0.62127593  0.86607827    -0.87800
C902        C  0.13588728  0.61014781  0.84025912     0.88300
Mg903      Mg  0.07887934  0.64761509  0.88126045     1.58100
O904        O  0.12697656  0.58310731  0.88117112    -0.87500
O905        O  0.08451296  0.58988354  0.87021807    -0.74800
C906        C  0.15442394  0.65458127  0.93889023     0.93300
O907        O  0.11449876  0.65015836  0.84634994    -0.74600
O908        O  0.14217152  0.66435939  0.92957284    -0.82100
Mg909      Mg  0.09667404  0.62353003  0.83797547     1.58000
C910        C  0.16525142  0.57432231  0.92323321     0.93200
O911        O  0.07757270  0.59852244  0.82808300    -0.80400
H912        H  0.10969706  0.56509522  0.89542508    -0.05700
C913        C  0.16004313  0.63061926  0.88919823     0.88200
O914        O  0.08520322  0.63186429  0.90970341    -0.74900
O915        O  0.11969125  0.60495244  0.84549625    -0.87700
O916        O  0.16341858  0.57333091  0.90510821    -0.80500
C917        C  0.15611673  0.55856768  0.84596916     0.93400
C918        C  0.07745483  0.58050580  0.82502959     0.93200
Mg919      Mg  0.13855574  0.61200037  0.92267361     1.58000
O920        O  0.15666018  0.63653134  0.93639223    -0.80400
O921        O  0.12061671  0.58655764  0.91188827    -0.74700
O922        O  0.13873634  0.56213295  0.84087436    -0.80500
O923        O  0.07364278  0.64343361  0.82893698    -0.82200
O924        O  0.09937616  0.67294607  0.91756883    -0.80500
C925        C  0.11894959  0.57760585  0.89605569     0.87600
O926        O  0.11646062  0.63134604  0.91340120    -0.87700
O927        O  0.15139834  0.61619731  0.89502424    -0.87800
O928        O  0.15243818  0.64720101  0.88939093    -0.74800
Mg929      Mg  0.11152272  0.57698520  0.85558634     1.58000
O930        O  0.16317825  0.56575926  0.86113242    -0.82200
H931        H  0.06362465  0.60774905  0.88007695    -0.05900
O932        O  0.10881814  0.65454338  0.87710482    -0.87500
H933        H  0.12510288  0.67263156  0.86173573    -0.05700
H934        H  0.09850508  0.62045539  0.93302925    -0.05900
C935        C  0.11627641  0.65978940  0.86181037     0.87600
C936        C  0.07705567  0.60648894  0.87232769     0.88200
C937        C  0.10012690  0.62773130  0.91936514     0.88300
H938        H  0.17414441  0.62889817  0.88288597    -0.05900
O939        O  0.15071721  0.60758776  0.85061076    -0.74900
Mg940      Mg  0.12493474  0.65900281  0.90291228     1.58000
H941        H  0.13735553  0.61778132  0.82677497    -0.05900
C942        C  0.06681679  0.65911389  0.83524719     0.93200
O943        O  0.07257398  0.67431337  0.90037265    -0.82200
C944        C  0.08228739  0.67883452  0.91533112     0.93300
O945        O  0.09178753  0.57005064  0.82973088    -0.82100
Mg946      Mg  0.15634700  0.59118070  0.87870115     1.58200
O947        O  0.06919924  0.66405743  0.85285772    -0.80500
O948        O  0.16062511  0.58940291  0.93259889    -0.82200
C949        C  0.00061630  0.75646116  0.70148892     0.80800
N950        N  0.99152104  0.77083844  0.71140765    -0.77500
C951        C  0.99093883  0.77041995  0.73099624     0.83300
N952        N  0.99913189  0.75571107  0.74052603    -0.77400
C953        C  0.00841872  0.74156682  0.73111587     0.83300
N954        N  0.00928447  0.74197829  0.71155843    -0.79200
C955        C  0.94033047  0.50058674  0.74550260     0.80800
N956        N  0.95055771  0.48726911  0.73516579    -0.77500
C957        C  0.97016914  0.48724818  0.73579122     0.83300
N958        N  0.97937237  0.50032896  0.74682765    -0.77400
C959        C  0.96952925  0.51354224  0.75708377     0.83300
N960        N  0.95001323  0.51357621  0.75661783    -0.79200
C961        C  0.29572683  0.50345639  0.75172198     0.80800
N962        N  0.28442248  0.50925678  0.76677417    -0.77500
C963        C  0.26489786  0.50872268  0.76511167     0.83300
N964        N  0.25698720  0.50243596  0.74859620    -0.77400
C965        C  0.26780292  0.49665910  0.73362315     0.83300
N966        N  0.28731325  0.49711337  0.73510042    -0.79200
C967        C  0.75023149  0.94057843  0.49115447     0.80800
N968        N  0.74290220  0.95176178  0.47669629    -0.77500
C969        C  0.74349781  0.97134897  0.47805021     0.83300
N970        N  0.75078746  0.97957110  0.49401549    -0.77400
C971        C  0.75808847  0.96896198  0.50846653     0.83300
N972        N  0.75782756  0.94936992  0.50708716    -0.79200
C973        C  0.00464832  0.24628075  0.43876115     0.80800
N974        N  0.99327452  0.23335874  0.44832157    -0.77500
C975        C  0.99255863  0.23324284  0.46787256     0.83300
N976        N  0.00321231  0.24589168  0.47798146    -0.77400
C977        C  0.01459890  0.25874969  0.46900248     0.83300
N978        N  0.01533526  0.25898425  0.44939065    -0.79200
C979        C  0.99941122  0.24288700  0.78851544     0.80800
N980        N  0.00529890  0.25906051  0.77895151    -0.77500
C981        C  0.00520611  0.25956960  0.75935906     0.83300
N982        N  0.99950032  0.24386561  0.74942775    -0.77400
C983        C  0.99387095  0.22768412  0.75857698     0.83300
N984        N  0.99383048  0.22714073  0.77814494    -0.79200
C985        C  0.49494633  0.74495847  0.28870326     0.80800
N986        N  0.49004778  0.72935713  0.27773026    -0.77500
C987        C  0.48981947  0.73049529  0.25819356     0.83300
N988        N  0.49417466  0.74725189  0.24961227    -0.77400
C989        C  0.49919762  0.76290782  0.25988995     0.83300
N990        N  0.49965655  0.76179512  0.27948605    -0.79200
C991        C  0.79014625  0.00506015  0.23721133     0.80800
N992        N  0.78087292  0.01367327  0.25217999    -0.77500
C993        C  0.76141951  0.01333800  0.25311200     0.83300
N994        N  0.75122478  0.00505927  0.23888430    -0.77400
C995        C  0.75998373  0.99707958  0.22353015     0.83300
N996        N  0.77957708  0.99702649  0.22262081    -0.79200
C997        C  0.25578477  0.78101177  0.00202348     0.80800
N998        N  0.23966064  0.77038665  0.99826833    -0.77500
C999        C  0.24009849  0.75085270  0.99980317     0.83300
N1000       N  0.25668805  0.74214783  0.00467982    -0.77400
C1001       C  0.27266017  0.75230231  0.00881651     0.83300
N1002       N  0.27231016  0.77188057  0.00755911    -0.79200
C1003       C  0.75145378  0.28908969  0.50858047     0.80800
N1004       N  0.76462767  0.27914291  0.51933605    -0.77500
C1005       C  0.76522529  0.25952775  0.51852947     0.83300
N1006       N  0.75299385  0.25010502  0.50685082    -0.77400
C1007       C  0.74007909  0.25951968  0.49583182     0.83300
N1008       N  0.73939050  0.27909617  0.49662928    -0.79200
C1009       C  0.21239743  0.49711198  0.26265624     0.80800
N1010       N  0.22378093  0.49152780  0.27777420    -0.77500
C1011       C  0.24331790  0.49326036  0.27677460     0.83300
N1012       N  0.25137690  0.50005368  0.26049923    -0.77400
C1013       C  0.24059337  0.50550650  0.24539841     0.83300
N1014       N  0.22115048  0.50418005  0.24647249    -0.79200
C1015       C  0.24154538  0.43238684  0.99836147     0.80800
N1016       N  0.25302978  0.44240477  0.01091856    -0.77500
C1017       C  0.25295278  0.46205448  0.01098139     0.83300
N1018       N  0.24127653  0.47136762  0.99861354    -0.77400
C1019       C  0.22963126  0.46195061  0.98641165     0.83300
N1020       N  0.22960744  0.44235987  0.98628757    -0.79200
C1021       C  0.43472613  0.01240387  0.24692678     0.80800
N1022       N  0.44571827  0.02715190  0.25409056    -0.77500
C1023       C  0.46526740  0.02642277  0.25242872     0.83300
N1024       N  0.47349551  0.01099006  0.24405667    -0.77400
C1025       C  0.46287677  0.99638891  0.23693461     0.83300
N1026       N  0.44341301  0.99711835  0.23821115    -0.79200
C1027       C  0.50254182  0.25876281  0.21797913     0.80800
N1028       N  0.49896372  0.27538331  0.22795921    -0.77500
C1029       C  0.49871196  0.27536608  0.24751220     0.83300
N1030       N  0.50176752  0.25880375  0.25702306    -0.77400
C1031       C  0.50462850  0.24212274  0.24758517     0.83300
N1032       N  0.50524326  0.24213052  0.22804284    -0.79200
C1033       C  0.25599057  0.21267499  0.50476908     0.80800
N1034       N  0.27228466  0.22387250  0.50458285    -0.77500
C1035       C  0.27101612  0.24347321  0.50593974     0.83300
N1036       N  0.25350825  0.25168415  0.50692813    -0.77400
C1037       C  0.23729344  0.24111404  0.50727972     0.83300
N1038       N  0.23848825  0.22157166  0.50645513    -0.79200
C1039       C  0.99905167  0.74710787  0.05546931     0.80800
N1040       N  0.98368609  0.75415313  0.04534974    -0.77500
C1041       C  0.98342728  0.75299205  0.02575190     0.83300
N1042       N  0.99847255  0.74495628  0.01655046    -0.77400
C1043       C  0.01377542  0.73802997  0.02615160     0.83300
N1044       N  0.01401590  0.73891126  0.04568804    -0.79200
C1045       C  0.74276627  0.06082326  0.99609419     0.80800
N1046       N  0.72786898  0.05191062  0.00536994    -0.77500
C1047       C  0.72707652  0.03234362  0.00604186     0.83300
N1048       N  0.74124879  0.02200874  0.99777686    -0.77400
C1049       C  0.75616281  0.03046795  0.98881090     0.83300
N1050       N  0.75690683  0.05000500  0.98775676    -0.79200
C1051       C  0.07182832  0.99928954  0.75964069     0.80800
N1052       N  0.06208233  0.98923458  0.77353697    -0.77500
C1053       C  0.04244912  0.98885532  0.77340190     0.83300
N1054       N  0.03283411  0.99821742  0.75943044    -0.77400
C1055       C  0.04212384  0.00797800  0.74551635     0.83300
N1056       N  0.06171284  0.00863095  0.74557719    -0.79200
C1057       C  0.20885525  0.70657104  0.99713057    -0.11300
C1058       C  0.19921997  0.70973161  0.97984736     0.11300
C1059       C  0.19988213  0.72816759  0.97117198    -0.03100
C1060       C  0.21238591  0.74217982  0.97889561    -0.05800
C1061       C  0.22329703  0.73842534  0.99545163    -0.16600
C1062       C  0.22022490  0.72089835  0.00556729     0.02300
C1063       C  0.18858021  0.69338985  0.97121197     0.12300
C1064       C  0.18754779  0.73283384  0.95381248     0.62900
H1065       H  0.21441198  0.75574516  0.97153613     0.12300
C1066       C  0.22882885  0.71651554  0.02511878     0.55000
H1067       H  0.20747324  0.69268831  0.00409764     0.08100
C1068       C  0.19764696  0.67990660  0.95891512    -0.05700
C1069       C  0.18617570  0.66627732  0.94929339    -0.06500
C1070       C  0.16639617  0.66504912  0.95280684    -0.16000
C1071       C  0.15807636  0.67645252  0.96748308    -0.01600
C1072       C  0.16919695  0.69098697  0.97596500    -0.09200
C1073       C  0.21928518  0.67974720  0.95631050     0.65100
H1074       H  0.19242840  0.65693258  0.93852523     0.10500
C1075       C  0.13788311  0.67343418  0.97514907     0.63500
H1076       H  0.16272575  0.70049553  0.98647944     0.07900
F1077       F  0.24452861  0.70456525  0.02287254    -0.19600
F1078       F  0.21536007  0.70728415  0.03649381    -0.15800
F1079       F  0.23434184  0.73300554  0.03476790    -0.19300
F1080       F  0.16838123  0.73083521  0.95862495    -0.22700
F1081       F  0.19179848  0.72047543  0.93883671    -0.24100
F1082       F  0.19041437  0.75149740  0.94750675    -0.18100
F1083       F  0.13881805  0.67025060  0.99475175    -0.20600
F1084       F  0.12865712  0.65782736  0.96696256    -0.21800
F1085       F  0.12703784  0.68972155  0.97193708    -0.19000
F1086       F  0.22504487  0.66597691  0.94314036    -0.19000
F1087       F  0.22792427  0.67559645  0.97372119    -0.22900
F1088       F  0.22564223  0.69747065  0.94994966    -0.24500
C1089       C  0.17241824  0.52302638  0.94077886    -0.11300
C1090       C  0.19016126  0.52449583  0.95013839     0.11300
C1091       C  0.19967576  0.54255851  0.95083651    -0.03100
C1092       C  0.19064046  0.55875656  0.94268318    -0.05800
C1093       C  0.17293408  0.55722636  0.93327769    -0.16600
C1094       C  0.16356216  0.53909536  0.93230302     0.02300
C1095       C  0.19849209  0.50670320  0.95871292     0.12300
C1096       C  0.21952400  0.54463962  0.95958595     0.62900
H1097       H  0.19768870  0.57264326  0.94289460     0.12300
C1098       C  0.14410035  0.53673803  0.92269371     0.55000
H1099       H  0.16561181  0.50903447  0.94006551     0.08100
C1100       C  0.19226805  0.49939605  0.97669615    -0.05700
C1101       C  0.20145199  0.48301773  0.98429108    -0.06500
C1102       C  0.21664443  0.47393511  0.97461980    -0.16000
C1103       C  0.22232916  0.48083959  0.95634980    -0.01600
C1104       C  0.21278311  0.49686202  0.94845421    -0.09200
C1105       C  0.17665026  0.50937902  0.98823154     0.65100
H1106       H  0.19772402  0.47791797  0.99852574     0.10500
C1107       C  0.23897270  0.47175530  0.94568943     0.63500
H1108       H  0.21694826  0.50236003  0.93449857     0.07900
F1109       F  0.13121407  0.54965728  0.93053250    -0.19600
F1110       F  0.13670460  0.51842136  0.92522681    -0.15800
F1111       F  0.14569072  0.53997727  0.90315448    -0.19300
F1112       F  0.23258962  0.53412506  0.94896174    -0.22700
F1113       F  0.21945281  0.53802755  0.97831552    -0.24100
F1114       F  0.22561194  0.56360587  0.95975409    -0.18100
F1115       F  0.24207667  0.48034249  0.92800912    -0.20600
F1116       F  0.23508282  0.45252877  0.94262325    -0.21800
F1117       F  0.25560743  0.47349080  0.95641976    -0.19000
F1118       F  0.17292114  0.49998193  0.00537694    -0.19000
F1119       F  0.15977005  0.50986632  0.97781314    -0.22900
F1120       F  0.18225097  0.52798348  0.99247063    -0.24500
C1121       C  0.04552995  0.73331393  0.98314983    -0.11300
C1122       C  0.05060358  0.71389073  0.98407795     0.11300
C1123       C  0.04814191  0.70382594  0.00167720    -0.03100
C1124       C  0.03701616  0.71243886  0.01638133    -0.05800
C1125       C  0.03029651  0.73136903  0.01450575    -0.16600
C1126       C  0.03648178  0.74250624  0.99860005     0.02300
C1127       C  0.05829674  0.70484859  0.96622502     0.12300
C1128       C  0.05789526  0.68465076  0.00513073     0.62900
H1129       H  0.03299419  0.70429580  0.02902386     0.12300
C1130       C  0.03355661  0.76407043  0.99732893     0.55000
H1131       H  0.04867355  0.74139070  0.97019011     0.08100
C1132       C  0.04627462  0.69465548  0.95327156    -0.05700
C1133       C  0.05440686  0.68666572  0.93647170    -0.06500
C1134       C  0.07363861  0.69011462  0.93140791    -0.16000
C1135       C  0.08475262  0.70281240  0.94302231    -0.01600
C1136       C  0.07713976  0.70920131  0.96068369    -0.09200
C1137       C  0.02476843  0.69322920  0.95665841     0.65100
H1138       H  0.04577950  0.67762928  0.92718688     0.10500
C1139       C  0.10370829  0.71118004  0.93601407     0.63500
H1140       H  0.08564376  0.71826758  0.97006391     0.07900
F1141       F  0.01896504  0.76804461  0.98446822    -0.19600
F1142       F  0.05030436  0.77268467  0.99093644    -0.15800
F1143       F  0.02913019  0.77210095  0.01498806    -0.19300
F1144       F  0.07756321  0.68711629  0.00384003    -0.22700
F1145       F  0.05218879  0.67125433  0.99162658    -0.24100
F1146       F  0.05373812  0.67743667  0.02321653    -0.18100
F1147       F  0.10977439  0.72628365  0.94749028    -0.20600
F1148       F  0.10142195  0.71813998  0.91753024    -0.21800
F1149       F  0.11801144  0.69748947  0.93606530    -0.19000
F1150       F  0.01564402  0.68309011  0.94216121    -0.19000
F1151       F  0.01700391  0.71151820  0.95720726    -0.22900
F1152       F  0.02099199  0.68410170  0.97387614    -0.24500
C1153       C  0.18592806  0.53883294  0.80405740    -0.11300
C1154       C  0.20172720  0.53116512  0.81403689     0.11300
C1155       C  0.20139396  0.53067667  0.83434286    -0.03100
C1156       C  0.18533973  0.53827770  0.84398613    -0.05800
C1157       C  0.16975451  0.54678872  0.83415350    -0.16600
C1158       C  0.16983476  0.54659624  0.81374968     0.02300
C1159       C  0.21882904  0.52456339  0.80289141     0.12300
C1160       C  0.21806131  0.52239345  0.84580865     0.62900
H1161       H  0.18517883  0.53821471  0.85955318     0.12300
C1162       C  0.15341579  0.55509789  0.80224300     0.55000
H1163       H  0.18655390  0.53909781  0.78850526     0.08100
C1164       C  0.21971956  0.50604497  0.79453374    -0.05700
C1165       C  0.23630116  0.50083370  0.78423634    -0.06500
C1166       C  0.25137136  0.51389530  0.78079731    -0.16000
C1167       C  0.25031305  0.53258169  0.78877875    -0.01600
C1168       C  0.23417499  0.53747007  0.80009981    -0.09200
C1169       C  0.20276643  0.49228531  0.79539556     0.65100
H1170       H  0.23706692  0.48678519  0.77754933     0.10500
C1171       C  0.26535658  0.54765507  0.78411350     0.63500
H1172       H  0.23300661  0.55172234  0.80626038     0.07900
F1173       F  0.13659948  0.54541652  0.80657108    -0.19600
F1174       F  0.15646606  0.55356103  0.78264602    -0.15800
F1175       F  0.15135896  0.57439538  0.80662170    -0.19300
F1176       F  0.23488245  0.53196708  0.84134983    -0.22700
F1177       F  0.22024489  0.50312324  0.84152902    -0.24100
F1178       F  0.21518007  0.52404838  0.86543436    -0.18100
F1179       F  0.26173952  0.56489318  0.79337443    -0.20600
F1180       F  0.26549852  0.55104254  0.76451180    -0.21800
F1181       F  0.28327681  0.54131172  0.78980031    -0.19000
F1182       F  0.20678093  0.47493014  0.78650411    -0.19000
F1183       F  0.18719205  0.50037625  0.78613439    -0.22900
F1184       F  0.19786103  0.48852440  0.81425913    -0.24500
C1185       C  0.02531310  0.56806690  0.81240793    -0.11300
C1186       C  0.02787562  0.55443091  0.79791338     0.11300
C1187       C  0.04669687  0.54953558  0.79193317    -0.03100
C1188       C  0.06252352  0.55808738  0.80132746    -0.05800
C1189       C  0.06004603  0.57177391  0.81598097    -0.16600
C1190       C  0.04099816  0.57682220  0.82170677     0.02300
C1191       C  0.01049255  0.54545620  0.78927283     0.12300
C1192       C  0.04994830  0.53554703  0.77548812     0.62900
H1193       H  0.07700422  0.55441252  0.79703521     0.12300
C1194       C  0.03693538  0.59054037  0.83824019     0.55000
H1195       H  0.01074525  0.57163273  0.81649991     0.08100
C1196       C  0.00173346  0.52897450  0.79744132    -0.05700
C1197       C  0.98710898  0.51960773  0.78708278    -0.06500
C1198       C  0.98058290  0.52672571  0.76942574    -0.16000
C1199       C  0.98783706  0.54433502  0.76233634    -0.01600
C1200       C  0.00281542  0.55348794  0.77243222    -0.09200
C1201       C  0.00786473  0.52131189  0.81692560     0.65100
H1202       H  0.98115457  0.50619129  0.79230560     0.10500
C1203       C  0.98007805  0.55295665  0.74390078     0.63500
H1204       H  0.00919758  0.56655576  0.76685084     0.07900
F1205       F  0.01751765  0.59174671  0.84236276    -0.19600
F1206       F  0.04318692  0.60886803  0.83378097    -0.15800
F1207       F  0.04610218  0.58403937  0.85458185    -0.19300
F1208       F  0.04136882  0.54249776  0.75897659    -0.22700
F1209       F  0.04207937  0.51784156  0.77992698    -0.24100
F1210       F  0.06928216  0.53296210  0.77169417    -0.18100
F1211       F  0.98808448  0.57078914  0.74011743    -0.20600
F1212       F  0.96040478  0.55520293  0.74543157    -0.21800
F1213       F  0.98407302  0.54091547  0.72859807    -0.19000
F1214       F  0.99779403  0.50487814  0.82192465    -0.19000
F1215       F  0.00444381  0.53508716  0.83084215    -0.22900
F1216       F  0.02719881  0.51688713  0.81679728    -0.24500
C1217       C  0.04544983  0.70167664  0.80677005    -0.11300
C1218       C  0.04157873  0.69263150  0.78908611     0.11300
C1219       C  0.04497199  0.67274478  0.78708901    -0.03100
C1220       C  0.05210464  0.66254030  0.80293994    -0.05800
C1221       C  0.05660603  0.67142995  0.82068253    -0.16600
C1222       C  0.05267713  0.69140204  0.82279305     0.02300
C1223       C  0.03288458  0.70403711  0.77318785     0.12300
C1224       C  0.04134612  0.66230130  0.76817476     0.62900
H1225       H  0.05447473  0.64725779  0.80132266     0.12300
C1226       C  0.05580811  0.70187916  0.84169148     0.55000
H1227       H  0.04251774  0.71692380  0.80793412     0.08100
C1228       C  0.01280631  0.70687397  0.77217504    -0.05700
C1229       C  0.00531793  0.71777550  0.75693086    -0.06500
C1230       C  0.01718228  0.72623082  0.74295787    -0.16000
C1231       C  0.03724451  0.72313362  0.74368342    -0.01600
C1232       C  0.04482552  0.71200096  0.75890096    -0.09200
C1233       C  0.99939709  0.69914179  0.78762157     0.65100
H1234       H  0.99004917  0.72066358  0.75632036     0.10500
C1235       C  0.05046816  0.73203334  0.72877535     0.63500
H1236       H  0.06015204  0.70960691  0.75991917     0.07900
F1237       F  0.05037242  0.72099304  0.84061669    -0.19600
F1238       F  0.07501569  0.70130979  0.84669577    -0.15800
F1239       F  0.04492300  0.69329176  0.85594817    -0.19300
F1240       F  0.05219630  0.67056132  0.75373986    -0.22700
F1241       F  0.02218162  0.66339062  0.76321482    -0.24100
F1242       F  0.04623374  0.64303735  0.76922508    -0.18100
F1243       F  0.04809615  0.75178558  0.72840992    -0.20600
F1244       F  0.04615723  0.72460189  0.71084209    -0.21800
F1245       F  0.06958444  0.72823426  0.73261190    -0.19000
F1246       F  0.98037269  0.70322304  0.78361140    -0.19000
F1247       F  0.00389118  0.70738612  0.80513125    -0.22900
F1248       F  0.00115089  0.67942588  0.78914951    -0.24500
C1249       C  0.98002350  0.94754323  0.83294102    -0.11300
C1250       C  0.98084037  0.95154869  0.81325435     0.11300
C1251       C  0.96482071  0.94715856  0.80140902    -0.03100
C1252       C  0.94841803  0.93868720  0.80981180    -0.05800
C1253       C  0.94783509  0.93428709  0.82945587    -0.16600
C1254       C  0.96372480  0.93907444  0.84133410     0.02300
C1255       C  0.99845789  0.96102051  0.80562362     0.12300
C1256       C  0.96535838  0.95075109  0.77989925     0.62900
H1257       H  0.93633350  0.93450617  0.80094546     0.12300
C1258       C  0.96341465  0.93542283  0.86288250     0.55000
H1259       H  0.99242085  0.95100865  0.84167706     0.08100
C1260       C  0.00131816  0.98109043  0.80735841    -0.05700
C1261       C  0.01727794  0.98948423  0.79817087    -0.06500
C1262       C  0.03057507  0.97843634  0.78771202    -0.16000
C1263       C  0.02838805  0.95819543  0.78714396    -0.01600
C1264       C  0.01234646  0.94977257  0.79628041    -0.09200
C1265       C  0.98732867  0.99356135  0.81858050     0.65100
H1266       H  0.01902240  0.00496821  0.79827953     0.10500
C1267       C  0.04250571  0.94571359  0.77624502     0.63500
H1268       H  0.01012533  0.93436812  0.79563385     0.07900
F1269       F  0.97948149  0.94293088  0.87191112    -0.19600
F1270       F  0.96293121  0.91590288  0.86655491    -0.15800
F1271       F  0.94738050  0.94400211  0.87085866    -0.19300
F1272       F  0.97895038  0.93893640  0.77154147    -0.22700
F1273       F  0.97004557  0.96972008  0.77622901    -0.24100
F1274       F  0.94780961  0.94697675  0.77133059    -0.18100
F1275       F  0.03754796  0.92644426  0.77706216    -0.20600
F1276       F  0.06058803  0.94783949  0.78416943    -0.21800
F1277       F  0.04305021  0.95112209  0.75712455    -0.19000
F1278       F  0.99175740  0.01290378  0.81707840    -0.19000
F1279       F  0.98794659  0.98860906  0.83781595    -0.22900
F1280       F  0.96883746  0.99095179  0.81180480    -0.24500
C1281       C  0.78918460  0.95676805  0.94164542    -0.11300
C1282       C  0.79973647  0.97049076  0.95208254     0.11300
C1283       C  0.81980666  0.96812671  0.95419055    -0.03100
C1284       C  0.82859323  0.95195570  0.94588133    -0.05800
C1285       C  0.81822808  0.93853097  0.93490694    -0.16600
C1286       C  0.79814448  0.94103919  0.93250810     0.02300
C1287       C  0.78949071  0.98701785  0.96107685     0.12300
C1288       C  0.83206269  0.98307950  0.96441233     0.62900
H1289       H  0.84400171  0.95016280  0.94702906     0.12300
C1290       C  0.78571191  0.92868628  0.91946269     0.55000
H1291       H  0.77381803  0.95869261  0.94013331     0.08100
C1292       C  0.78329930  0.00331531  0.95047076    -0.05700
C1293       C  0.77389072  0.01841493  0.96028487    -0.06500
C1294       C  0.77082839  0.01769331  0.98021320    -0.16000
C1295       C  0.77821101  0.00195078  0.99086064    -0.01600
C1296       C  0.78663801  0.98652982  0.98099150    -0.09200
C1297       C  0.78611337  0.00449342  0.92886141     0.65100
H1298       H  0.76787345  0.03034900  0.95231438     0.10500
C1299       C  0.77710853  0.00080515  0.01263819     0.63500
H1300       H  0.79142185  0.97403258  0.98898126     0.07900
F1301       F  0.77961609  0.93968463  0.90407323    -0.19600
F1302       F  0.76978962  0.92235645  0.92953116    -0.15800
F1303       F  0.79505686  0.91272018  0.91231694    -0.19300
F1304       F  0.82740672  0.98369885  0.98370247    -0.22700
F1305       F  0.82900295  0.00099992  0.95638389    -0.24100
F1306       F  0.85146058  0.97902120  0.96293903    -0.18100
F1307       F  0.76167459  0.98945215  0.01792034    -0.20600
F1308       F  0.77518569  0.01879548  0.02092195    -0.21800
F1309       F  0.79375928  0.99272879  0.01988780    -0.19000
F1310       F  0.78042425  0.02213968  0.92164672    -0.19000
F1311       F  0.77537220  0.99038662  0.91988625    -0.22900
F1312       F  0.80526396  0.00193572  0.92432416    -0.24500
C1313       C  0.95065863  0.79378630  0.94985953    -0.11300
C1314       C  0.93920598  0.78700311  0.96505432     0.11300
C1315       C  0.91910345  0.78899372  0.96412356    -0.03100
C1316       C  0.91100874  0.79710162  0.94758246    -0.05800
C1317       C  0.92230449  0.80523986  0.93282596    -0.16600
C1318       C  0.94260802  0.80325933  0.93378977     0.02300
C1319       C  0.94858495  0.77755961  0.98172139     0.12300
C1320       C  0.90632403  0.78377884  0.98106904     0.62900
H1321       H  0.89554867  0.79847481  0.94676617     0.12300
C1322       C  0.95581300  0.81165213  0.91858212     0.55000
H1323       H  0.96606579  0.79206441  0.95103435     0.08100
C1324       C  0.95348128  0.75787992  0.98124415    -0.05700
C1325       C  0.96290201  0.74990097  0.99720520    -0.06500
C1326       C  0.96798197  0.76102166  0.01337027    -0.16000
C1327       C  0.96198624  0.78048623  0.01428611    -0.01600
C1328       C  0.95244838  0.78847028  0.99826575    -0.09200
C1329       C  0.94945030  0.74560202  0.96359412     0.65100
H1330       H  0.96753834  0.73504945  0.99666543     0.10500
C1331       C  0.96610000  0.79293880  0.03170476     0.63500
H1332       H  0.94827598  0.80346095  0.99830825     0.07900
F1333       F  0.97495683  0.80797900  0.92254646    -0.19600
F1334       F  0.95346441  0.83137354  0.91770199    -0.15800
F1335       F  0.95161707  0.80364171  0.90087764    -0.19300
F1336       F  0.91065699  0.79559886  0.99646074    -0.22700
F1337       F  0.90917089  0.76486229  0.98639437    -0.24100
F1338       F  0.88704559  0.78610229  0.97683124    -0.18100
F1339       F  0.98567544  0.79408201  0.03480327    -0.20600
F1340       F  0.95730599  0.78504430  0.04768854    -0.21800
F1341       F  0.95917472  0.81145644  0.02940115    -0.19000
F1342       F  0.95465687  0.72661025  0.96639021    -0.19000
F1343       F  0.95971131  0.75258714  0.94807762    -0.22900
F1344       F  0.93009169  0.74601551  0.95923569    -0.24500
C1345       C  0.98365125  0.80717937  0.76995341    -0.11300
C1346       C  0.96404600  0.80473076  0.77368296     0.11300
C1347       C  0.95257742  0.79401943  0.76065047    -0.03100
C1348       C  0.96168099  0.78430961  0.74535633    -0.05800
C1349       C  0.98160965  0.78539203  0.74270756    -0.16600
C1350       C  0.99272867  0.79745046  0.75477755     0.02300
C1351       C  0.95613100  0.81354338  0.79147555     0.12300
C1352       C  0.93095204  0.79261869  0.76307608     0.62900
H1353       H  0.95347704  0.77494911  0.73599441     0.12300
C1354       C  0.01427775  0.79933672  0.75211798     0.55000
H1355       H  0.99199674  0.81601248  0.77970057     0.08100
C1356       C  0.95882357  0.80526464  0.80990806    -0.05700
C1357       C  0.95154876  0.81493323  0.82616829    -0.06500
C1358       C  0.94164097  0.83243955  0.82453931    -0.16000
C1359       C  0.93852444  0.84035613  0.80584570    -0.01600
C1360       C  0.94632231  0.83093453  0.78977222    -0.09200
C1361       C  0.96921971  0.78624002  0.81236332     0.65100
H1362       H  0.95365200  0.80890716  0.84036018     0.10500
C1363       C  0.92616293  0.85802386  0.80241577     0.63500
H1364       H  0.94475017  0.83704941  0.77554593     0.07900
F1365       F  0.02322178  0.78236664  0.75725685    -0.19600
F1366       F  0.02184302  0.81396907  0.76330795    -0.15800
F1367       F  0.01835198  0.80339181  0.73308583    -0.19300
F1368       F  0.92284239  0.81059237  0.76071525    -0.22700
F1369       F  0.92649002  0.78577752  0.78119486    -0.24100
F1370       F  0.92277498  0.78038086  0.74966563    -0.18100
F1371       F  0.93510750  0.87424511  0.80962614    -0.20600
F1372       F  0.90856262  0.85550348  0.81117029    -0.21800
F1373       F  0.92275463  0.86114103  0.78305284    -0.19000
F1374       F  0.96936164  0.78026067  0.83134821    -0.19000
F1375       F  0.98805443  0.78801056  0.80637500    -0.22900
F1376       F  0.96022131  0.77218686  0.80155145    -0.24500
C1377       C  0.80608902  0.97284232  0.84208111    -0.11300
C1378       C  0.80676461  0.97581793  0.82230878     0.11300
C1379       C  0.82394327  0.97206496  0.81214167    -0.03100
C1380       C  0.83938988  0.96334517  0.82199814    -0.05800
C1381       C  0.83843041  0.95908152  0.84182191    -0.16600
C1382       C  0.82159293  0.96487431  0.85223275     0.02300
C1383       C  0.78916624  0.98333365  0.81290928     0.12300
C1384       C  0.82596737  0.97765507  0.79112052     0.62900
H1385       H  0.85225675  0.95958253  0.81413452     0.12300
C1386       C  0.81931939  0.96265988  0.87389237     0.55000
H1387       H  0.79290503  0.97653260  0.84947193     0.08100
C1388       C  0.77440029  0.97098698  0.80618001    -0.05700
C1389       C  0.75861626  0.97910417  0.79651044    -0.06500
C1390       C  0.75724230  0.99898354  0.79366430    -0.16000
C1391       C  0.77101456  0.01139689  0.80212690    -0.01600
C1392       C  0.78682018  0.00329377  0.81170330    -0.09200
C1393       C  0.77551526  0.94935548  0.80887106     0.65100
H1394       H  0.74789793  0.96990288  0.78994844     0.10500
C1395       C  0.76918564  0.03310447  0.80069961     0.63500
H1396       H  0.79786123  0.01247348  0.81774235     0.07900
F1397       F  0.81770311  0.94340530  0.87855706    -0.19600
F1398       F  0.80301425  0.97177241  0.88073317    -0.15800
F1399       F  0.83488723  0.97079973  0.88320613    -0.19300
F1400       F  0.82408331  0.99736549  0.78932691    -0.22700
F1401       F  0.81192444  0.96880763  0.78020429    -0.24100
F1402       F  0.84367453  0.97247170  0.78372919    -0.18100
F1403       F  0.78194373  0.04239522  0.81283248    -0.20600
F1404       F  0.75079329  0.03861780  0.80578197    -0.21800
F1405       F  0.77291463  0.03906562  0.78213049    -0.19000
F1406       F  0.75966122  0.94008527  0.80119987    -0.19000
F1407       F  0.77634259  0.94506607  0.82825184    -0.22900
F1408       F  0.79171493  0.94220199  0.79992527    -0.24500
C1409       C  0.96471695  0.19534103  0.72618640    -0.11300
C1410       C  0.97932822  0.18692016  0.71519881     0.11300
C1411       C  0.99877201  0.19011357  0.72019586    -0.03100
C1412       C  0.00290327  0.20193264  0.73612846    -0.05800
C1413       C  0.98827455  0.21106949  0.74659372    -0.16600
C1414       C  0.96885662  0.20761489  0.74170047     0.02300
C1415       C  0.97354064  0.17639329  0.69754484     0.12300
C1416       C  0.01504001  0.18242718  0.70787752     0.62900
H1417       H  0.01767122  0.20536848  0.73962778     0.12300
C1418       C  0.95261888  0.21749548  0.75228536     0.55000
H1419       H  0.94996883  0.19284740  0.72191251     0.08100
C1420       C  0.96732713  0.15709091  0.69809783    -0.05700
C1421       C  0.96057564  0.14863262  0.68108074    -0.06500
C1422       C  0.95834215  0.15908975  0.66379912    -0.16000
C1423       C  0.96406962  0.17878870  0.66352668    -0.01600
C1424       C  0.97205144  0.18685169  0.68037103    -0.09200
C1425       C  0.96700415  0.14565663  0.71673963     0.65100
H1426       H  0.95600902  0.13377878  0.68160165     0.10500
C1427       C  0.96125884  0.19164354  0.64609239     0.63500
H1428       H  0.97638352  0.20181239  0.68062155     0.07900
F1429       F  0.95286538  0.21189465  0.77127993    -0.19600
F1430       F  0.93484142  0.21273262  0.74475365    -0.15800
F1431       F  0.95474182  0.23724097  0.75116209    -0.19300
F1432       F  0.01487954  0.19159315  0.69024983    -0.22700
F1433       F  0.01295746  0.16287634  0.70502011    -0.24100
F1434       F  0.03276615  0.18553715  0.71635090    -0.18100
F1435       F  0.94186768  0.19361338  0.64228748    -0.20600
F1436       F  0.97044812  0.18381011  0.63030948    -0.21800
F1437       F  0.96867248  0.20990759  0.64899428    -0.19000
F1438       F  0.96032236  0.12708491  0.71400735    -0.19000
F1439       F  0.95503356  0.15451259  0.72987632    -0.22900
F1440       F  0.98526744  0.14454109  0.72437231    -0.24500
C1441       C  0.94525751  0.17049574  0.52159244    -0.11300
C1442       C  0.95559440  0.18733964  0.52509446     0.11300
C1443       C  0.95658759  0.19490612  0.54399932    -0.03100
C1444       C  0.94616789  0.18569416  0.55877581    -0.05800
C1445       C  0.93500288  0.16928431  0.55503475    -0.16600
C1446       C  0.93543322  0.16089774  0.53635152     0.02300
C1447       C  0.96433155  0.19731437  0.50840450     0.12300
C1448       C  0.96818720  0.21291087  0.54833376     0.62900
H1449       H  0.94603505  0.19168713  0.57314550     0.12300
C1450       C  0.92643503  0.14140808  0.53204269     0.55000
H1451       H  0.94479562  0.16500839  0.50702509     0.08100
C1452       C  0.98192226  0.19137776  0.50010403    -0.05700
C1453       C  0.98989646  0.20261710  0.48526680    -0.06500
C1454       C  0.98084843  0.21942512  0.47879516    -0.16000
C1455       C  0.96285627  0.22480221  0.48654027    -0.01600
C1456       C  0.95462257  0.21327376  0.50092280    -0.09200
C1457       C  0.99251167  0.17372958  0.50737740     0.65100
H1458       H  0.00383535  0.19902204  0.47938142     0.10500
C1459       C  0.95287830  0.24313360  0.48026301     0.63500
H1460       H  0.94093817  0.21717474  0.50719812     0.07900
F1461       F  0.93153129  0.13471899  0.51399672    -0.19600
F1462       F  0.90664335  0.14251991  0.53260876    -0.15800
F1463       F  0.93273768  0.12810783  0.54538169    -0.19300
F1464       F  0.95991349  0.22858917  0.53939539    -0.22700
F1465       F  0.98678495  0.21080508  0.54170604    -0.24100
F1466       F  0.96902554  0.21663558  0.56786086    -0.18100
F1467       F  0.93523565  0.24537256  0.48917172    -0.20600
F1468       F  0.94993028  0.24271309  0.46061365    -0.21800
F1469       F  0.96411520  0.25888049  0.48487163    -0.19000
F1470       F  0.00966351  0.17092226  0.49772561    -0.19000
F1471       F  0.98132280  0.15752001  0.50474830    -0.22900
F1472       F  0.99656742  0.17574099  0.52672799    -0.24500
C1473       C  0.96475561  0.04459362  0.70845003    -0.11300
C1474       C  0.98267284  0.04242272  0.69934847     0.11300
C1475       C  0.98477392  0.04826057  0.68001333    -0.03100
C1476       C  0.96931864  0.05757724  0.67091637    -0.05800
C1477       C  0.95157188  0.06064292  0.68018496    -0.16600
C1478       C  0.94903638  0.05353727  0.69914153     0.02300
C1479       C  0.99912286  0.03411161  0.71034432     0.12300
C1480       C  0.00315961  0.04425611  0.66892270     0.62900
H1481       H  0.97099535  0.06256136  0.65626088     0.12300
C1482       C  0.93009223  0.05579570  0.70965192     0.55000
H1483       H  0.96331070  0.03946671  0.72307780     0.08100
C1484       C  0.01129627  0.04562496  0.72199739    -0.05700
C1485       C  0.02670805  0.03681985  0.73183009    -0.06500
C1486       C  0.03016961  0.01699540  0.73043796    -0.16000
C1487       C  0.01818489  0.00560075  0.71845087    -0.01600
C1488       C  0.00271536  0.01434338  0.70882576    -0.09200
C1489       C  0.00774000  0.06704610  0.72434454     0.65100
H1490       H  0.03557630  0.04518514  0.74151948     0.10500
C1491       C  0.02072085  0.98405358  0.71588747     0.63500
H1492       H  0.99328958  0.00561960  0.69998739     0.07900
F1493       F  0.93122345  0.04941777  0.72846676    -0.19600
F1494       F  0.91607024  0.04516646  0.70039373    -0.15800
F1495       F  0.92476889  0.07494920  0.70998891    -0.19300
F1496       F  0.00558540  0.02461539  0.66707470    -0.22700
F1497       F  0.01883467  0.05184468  0.67846587    -0.24100
F1498       F  0.00272256  0.05216073  0.65067134    -0.18100
F1499       F  0.01992684  0.97950426  0.69653709    -0.20600
F1500       F  0.00603501  0.97454199  0.72531762    -0.21800
F1501       F  0.03809929  0.97744690  0.72284562    -0.19000
F1502       F  0.02031003  0.07527835  0.73738894    -0.19000
F1503       F  0.98927758  0.07019302  0.73090859    -0.22900
F1504       F  0.01006757  0.07622851  0.70688902    -0.24500
C1505       C  0.80476192  0.18002244  0.54358924    -0.11300
C1506       C  0.81148809  0.19823180  0.54925950     0.11300
C1507       C  0.82775659  0.19950852  0.56133930    -0.03100
C1508       C  0.83731275  0.18247527  0.56662725    -0.05800
C1509       C  0.83082064  0.16414731  0.56086798    -0.16600
C1510       C  0.81406234  0.16285496  0.54927797     0.02300
C1511       C  0.80125877  0.21574424  0.54220730     0.12300
C1512       C  0.83464391  0.21875929  0.56909376     0.62900
H1513       H  0.84979877  0.18334702  0.57586343     0.12300
C1514       C  0.80635990  0.14362945  0.54237109     0.55000
H1515       H  0.79212536  0.17941933  0.53454085     0.08100
C1516       C  0.80554206  0.22422152  0.52419475    -0.05700
C1517       C  0.79474577  0.24026368  0.51807449    -0.06500
C1518       C  0.77947276  0.24767878  0.52903549    -0.16000
C1519       C  0.77537597  0.23923774  0.54717883    -0.01600
C1520       C  0.78659692  0.22362660  0.55355760    -0.09200
C1521       C  0.82062366  0.21559583  0.51096424     0.65100
H1522       H  0.79719112  0.24624947  0.50390790     0.10500
C1523       C  0.75896685  0.24544103  0.56010859     0.63500
H1524       H  0.78337906  0.21700832  0.56729858     0.07900
F1525       F  0.79090866  0.14581821  0.53004437    -0.19600
F1526       F  0.80022872  0.13280077  0.55785857    -0.15800
F1527       F  0.82061688  0.13380403  0.53262991    -0.19300
F1528       F  0.82077292  0.22639696  0.58107455    -0.22700
F1529       F  0.83802614  0.23147535  0.55421421    -0.24100
F1530       F  0.85148572  0.21696940  0.57950596    -0.18100
F1531       F  0.74674050  0.23002212  0.56303743    -0.20600
F1532       F  0.74835772  0.26045084  0.55268657    -0.21800
F1533       F  0.76632292  0.25120901  0.57765675    -0.19000
F1534       F  0.82371154  0.22691459  0.49489188    -0.19000
F1535       F  0.81463582  0.19763824  0.50487488    -0.22900
F1536       F  0.83793549  0.21372581  0.52047649    -0.24500
C1537       C  0.79626153  0.99362745  0.53847874    -0.11300
C1538       C  0.78545186  0.00816201  0.54737550     0.11300
C1539       C  0.76523976  0.00824958  0.54524292    -0.03100
C1540       C  0.75655956  0.99391737  0.53378615    -0.05800
C1541       C  0.76742714  0.97962607  0.52444501    -0.16600
C1542       C  0.78757583  0.97929740  0.52703945     0.02300
C1543       C  0.79583458  0.02356243  0.55815176     0.12300
C1544       C  0.75302630  0.02381207  0.55451317     0.62900
H1545       H  0.74123270  0.99434097  0.53119332     0.12300
C1546       C  0.79993119  0.96461885  0.51672206     0.55000
H1547       H  0.81171978  0.99400133  0.54008024     0.08100
C1548       C  0.80256273  0.02069153  0.57707458    -0.05700
C1549       C  0.81231008  0.03578766  0.58631228    -0.06500
C1550       C  0.81655663  0.05339310  0.57709233    -0.16000
C1551       C  0.80993367  0.05615044  0.55791996    -0.01600
C1552       C  0.79956727  0.04113472  0.54888632    -0.09200
C1553       C  0.79979105  0.00161915  0.58741200     0.65100
H1554       H  0.81716330  0.03362463  0.60092436     0.10500
C1555       C  0.81417737  0.07439092  0.54669092     0.63500
H1556       H  0.79451962  0.04281351  0.53426089     0.07900
F1557       F  0.81916707  0.96664548  0.52128118    -0.19600
F1558       F  0.79794876  0.96680676  0.49705162    -0.15800
F1559       F  0.79429139  0.94627250  0.52190732    -0.19300
F1560       F  0.75764990  0.04154135  0.54680831    -0.22700
F1561       F  0.75626192  0.02426578  0.57411471    -0.24100
F1562       F  0.73361719  0.02068537  0.55157811    -0.18100
F1563       F  0.83381076  0.07713083  0.54541325    -0.20600
F1564       F  0.80585237  0.08997989  0.55576899    -0.21800
F1565       F  0.80694954  0.07357443  0.52815923    -0.19000
F1566       F  0.80750138  0.00189778  0.60575923    -0.19000
F1567       F  0.80876495  0.98706574  0.57731242    -0.22900
F1568       F  0.78045505  0.99745594  0.58894377    -0.24500
C1569       C  0.82208288  0.03591367  0.70337683    -0.11300
C1570       C  0.80406379  0.03753778  0.69446199     0.11300
C1571       C  0.80303055  0.04412766  0.67530681    -0.03100
C1572       C  0.82015609  0.04883877  0.66568135    -0.05800
C1573       C  0.83842678  0.04745737  0.67445589    -0.16600
C1574       C  0.83938307  0.04049445  0.69371055     0.02300
C1575       C  0.78651223  0.03221212  0.70559783     0.12300
C1576       C  0.78385347  0.04664353  0.66517508     0.62900
H1577       H  0.81916652  0.05430000  0.65115734     0.12300
C1578       C  0.85832871  0.03735922  0.70403777     0.55000
H1579       H  0.82242619  0.03094489  0.71812906     0.08100
C1580       C  0.78047380  0.01285675  0.70757856    -0.05700
C1581       C  0.76425631  0.00877575  0.71899897    -0.06500
C1582       C  0.75458587  0.02322019  0.72925489    -0.16000
C1583       C  0.76067261  0.04259055  0.72731206    -0.01600
C1584       C  0.77635118  0.04676837  0.71519707    -0.09200
C1585       C  0.79184440  0.99647906  0.69868580     0.65100
H1586       H  0.76000338  0.99398014  0.72139225     0.10500
C1587       C  0.75206017  0.05919224  0.73859380     0.63500
H1588       H  0.78127354  0.06150443  0.71388903     0.07900
F1589       F  0.85579193  0.02841180  0.72164829    -0.19600
F1590       F  0.86728054  0.05479095  0.70737627    -0.15800
F1591       F  0.87008550  0.02576211  0.69298526    -0.19300
F1592       F  0.77327120  0.06069644  0.67438728    -0.22700
F1593       F  0.77365446  0.02959202  0.66543512    -0.24100
F1594       F  0.78612107  0.05208457  0.64615704    -0.18100
F1595       F  0.76584313  0.06664779  0.75082612    -0.20600
F1596       F  0.73626478  0.05399477  0.74944977    -0.21800
F1597       F  0.74634951  0.07343923  0.72598177    -0.19000
F1598       F  0.78323567  0.97882302  0.70192189    -0.19000
F1599       F  0.81003373  0.99594262  0.70661225    -0.22900
F1600       F  0.79339110  0.99905353  0.67905350    -0.24500
C1601       C  0.79569675  0.76499373  0.96925953    -0.11300
C1602       C  0.78804529  0.78025865  0.95850853     0.11300
C1603       C  0.76832387  0.78014033  0.95365854    -0.03100
C1604       C  0.75663651  0.76531971  0.96091821    -0.05800
C1605       C  0.76392097  0.75073086  0.97290982    -0.16600
C1606       C  0.78390865  0.75022800  0.97674149     0.02300
C1607       C  0.80094063  0.79629275  0.95252522     0.12300
C1608       C  0.75960796  0.79579506  0.94113938     0.62900
H1609       H  0.74137628  0.76543565  0.95789742     0.12300
C1610       C  0.79258110  0.73485876  0.98947791     0.55000
H1611       H  0.81093903  0.76516624  0.97233333     0.08100
C1612       C  0.80480424  0.81229249  0.96459291    -0.05700
C1613       C  0.81603782  0.82760454  0.95735445    -0.06500
C1614       C  0.82393940  0.82695484  0.93880428    -0.16000
C1615       C  0.82059683  0.81057270  0.92706096    -0.01600
C1616       C  0.80903843  0.79555586  0.93413909    -0.09200
C1617       C  0.79732650  0.81295110  0.98509296     0.65100
H1618       H  0.81906324  0.84002772  0.96624499     0.10500
C1619       C  0.82878113  0.80916734  0.90688436     0.63500
H1620       H  0.80604642  0.78308786  0.92529518     0.07900
F1621       F  0.78407409  0.73543596  0.00742759    -0.19600
F1622       F  0.81214898  0.73741840  0.99187505    -0.15800
F1623       F  0.78966369  0.71696581  0.98130297    -0.19300
F1624       F  0.76754965  0.79501543  0.92294461    -0.22700
F1625       F  0.76317258  0.81370751  0.94899238    -0.24100
F1626       F  0.73991241  0.79373749  0.93935696    -0.18100
F1627       F  0.84860852  0.80926440  0.90760767    -0.20600
F1628       F  0.82245448  0.82458136  0.89607472    -0.21800
F1629       F  0.82313531  0.79244500  0.89766632    -0.19000
F1630       F  0.80248114  0.82982103  0.99432529    -0.19000
F1631       F  0.80483247  0.79773656  0.99542207    -0.22900
F1632       F  0.77752406  0.81165482  0.98521251    -0.24500
C1633       C  0.48807892  0.96666451  0.19937290    -0.11300
C1634       C  0.50350818  0.95969546  0.21038069     0.11300
C1635       C  0.50309840  0.96164958  0.23062338    -0.03100
C1636       C  0.48794842  0.97191902  0.23906922    -0.05800
C1637       C  0.47335888  0.98027236  0.22796809    -0.16600
C1638       C  0.47274737  0.97679179  0.20794081     0.02300
C1639       C  0.52052920  0.95145455  0.20042450     0.12300
C1640       C  0.51928256  0.95414082  0.24317180     0.62900
H1641       H  0.48819934  0.97485692  0.25437216     0.12300
C1642       C  0.45639458  0.98438302  0.19571511     0.55000
H1643       H  0.48854407  0.96477760  0.18392500     0.08100
C1644       C  0.52111787  0.93214221  0.19432435    -0.05700
C1645       C  0.53829257  0.92504008  0.18640077    -0.06500
C1646       C  0.55475117  0.93673887  0.18353510    -0.16000
C1647       C  0.55367805  0.95644469  0.18905289    -0.01600
C1648       C  0.53660149  0.96329929  0.19760839    -0.09200
C1649       C  0.50353967  0.91921240  0.19591004     0.65100
H1650       H  0.53865325  0.91015203  0.18191625     0.10500
C1651       C  0.57013042  0.97040521  0.18584157     0.63500
H1652       H  0.53553950  0.97815181  0.20217840     0.07900
F1653       F  0.45854793  0.97944357  0.17655414    -0.19600
F1654       F  0.45556667  0.00421364  0.19696055    -0.15800
F1655       F  0.43924277  0.97668296  0.20216642    -0.19300
F1656       F  0.53562991  0.96500150  0.24012437    -0.22700
F1657       F  0.52314862  0.93514619  0.23881200    -0.24100
F1658       F  0.51467517  0.95510526  0.26251147    -0.18100
F1659       F  0.57356600  0.97230825  0.16634954    -0.20600
F1660       F  0.58646405  0.96378542  0.19498805    -0.21800
F1661       F  0.56610566  0.98852480  0.19303553    -0.19000
F1662       F  0.50720279  0.90075241  0.18943996    -0.19000
F1663       F  0.48877811  0.92666142  0.18492794    -0.22900
F1664       F  0.49756351  0.91802053  0.21482248    -0.24500
C1665       C  0.69728397  0.97123925  0.15579552    -0.11300
C1666       C  0.69755451  0.97206155  0.17586039     0.11300
C1667       C  0.68051714  0.96777753  0.18620189    -0.03100
C1668       C  0.66470183  0.95975036  0.17625775    -0.05800
C1669       C  0.66510732  0.95715309  0.15622518    -0.16600
C1670       C  0.68106595  0.96465276  0.14570107     0.02300
C1671       C  0.71561755  0.97835725  0.18556432     0.12300
C1672       C  0.67914317  0.97174296  0.20760182     0.62900
H1673       H  0.65224342  0.95482643  0.18415819     0.12300
C1674       C  0.68138282  0.96582304  0.12385830     0.55000
H1675       H  0.71000664  0.97569400  0.14800223     0.08100
C1676       C  0.73048705  0.96533737  0.19057748    -0.05700
C1677       C  0.74610137  0.97206841  0.20177704    -0.06500
C1678       C  0.74747600  0.99148391  0.20719664    -0.16000
C1679       C  0.73374606  0.00477174  0.20003171    -0.01600
C1680       C  0.71785155  0.99789322  0.18970728    -0.09200
C1681       C  0.72965077  0.94448756  0.18418802     0.65100
H1682       H  0.75674243  0.96209347  0.20716416     0.10500
C1683       C  0.73460406  0.02618587  0.20423646     0.63500
H1684       H  0.70677407  0.00784344  0.18516375     0.07900
F1685       F  0.68760991  0.94856080  0.11621706    -0.19600
F1686       F  0.69368611  0.98019899  0.11765474    -0.15800
F1687       F  0.66330015  0.97008561  0.11680345    -0.19300
F1688       F  0.68232553  0.99107740  0.21102623    -0.22700
F1689       F  0.69272838  0.96108695  0.21738372    -0.24100
F1690       F  0.66119724  0.96715429  0.21482655    -0.18100
F1691       F  0.72883646  0.03648526  0.18824032    -0.20600
F1692       F  0.75296986  0.03224739  0.20883247    -0.21800
F1693       F  0.72238521  0.03036797  0.21934214    -0.19000
F1694       F  0.74536543  0.93415076  0.19060055    -0.19000
F1695       F  0.72942770  0.94364778  0.16432254    -0.22900
F1696       F  0.71322235  0.93581143  0.19122745    -0.24500
C1697       C  0.69419407  0.00806657  0.04220605    -0.11300
C1698       C  0.69051875  0.99088586  0.03212324     0.11300
C1699       C  0.69506577  0.98975793  0.01233904    -0.03100
C1700       C  0.70514096  0.00501272  0.00390285    -0.05800
C1701       C  0.71094963  0.02121356  0.01448532    -0.16600
C1702       C  0.70430204  0.02348257  0.03359000     0.02300
C1703       C  0.68205776  0.97413802  0.04244040     0.12300
C1704       C  0.68994090  0.97225563  0.00026713     0.62900
H1705       H  0.70964872  0.00390384  0.98903572     0.12300
C1706       C  0.70814904  0.04177115  0.04481268     0.55000
H1707       H  0.68967726  0.00900567  0.05707675     0.08100
C1708       C  0.69330890  0.96161688  0.05394221    -0.05700
C1709       C  0.68443138  0.94549353  0.06242488    -0.06500
C1710       C  0.66502993  0.94122485  0.05916484    -0.16000
C1711       C  0.65386911  0.95362938  0.04749483    -0.01600
C1712       C  0.66255089  0.97012209  0.03963541    -0.09200
C1713       C  0.71461798  0.96508835  0.05702065     0.65100
H1714       H  0.69258084  0.93600572  0.07167094     0.10500
C1715       C  0.63272084  0.94985894  0.04388123     0.63500
H1716       H  0.65419639  0.98002998  0.03104212     0.07900
F1717       F  0.72769841  0.04449208  0.04696527    -0.19600
F1718       F  0.69990633  0.04120216  0.06292136    -0.15800
F1719       F  0.70042268  0.05725885  0.03504364    -0.19300
F1720       F  0.67022251  0.97039590  0.99914039    -0.22700
F1721       F  0.69760403  0.95584843  0.00842027    -0.24100
F1722       F  0.69693374  0.97371661  0.98168829    -0.18100
F1723       F  0.62284251  0.95065794  0.06107805    -0.20600
F1724       F  0.63030460  0.93190906  0.03567786    -0.21800
F1725       F  0.62478964  0.96330466  0.03154729    -0.19000
F1726       F  0.72283885  0.95095331  0.06835850    -0.19000
F1727       F  0.71743456  0.98256933  0.06604199    -0.22900
F1728       F  0.72400460  0.96517728  0.03950453    -0.24500
C1729       C  0.53291601  0.80808182  0.18724060    -0.11300
C1730       C  0.52394275  0.81719149  0.20284154     0.11300
C1731       C  0.52261280  0.83746267  0.20326724    -0.03100
C1732       C  0.53075303  0.84804245  0.18810426    -0.05800
C1733       C  0.54038114  0.83904373  0.17276810    -0.16600
C1734       C  0.54115027  0.81866207  0.17204270     0.02300
C1735       C  0.51639459  0.80508472  0.21874572     0.12300
C1736       C  0.51323028  0.84786006  0.22001362     0.62900
H1737       H  0.53030342  0.86361122  0.18848048     0.12300
C1738       C  0.55133046  0.80812733  0.15586299     0.55000
H1739       H  0.53375158  0.79253200  0.18731643     0.08100
C1740       C  0.49830115  0.79598350  0.21752199    -0.05700
C1741       C  0.49219242  0.78447853  0.23294539    -0.06500
C1742       C  0.50421220  0.78039303  0.24870105    -0.16000
C1743       C  0.52241541  0.78945365  0.24986768    -0.01600
C1744       C  0.52801421  0.80205431  0.23497017    -0.09200
C1745       C  0.48623539  0.79704355  0.19934278     0.65100
H1746       H  0.47853299  0.77707619  0.23198961     0.10500
C1747       C  0.53626261  0.78505989  0.26609955     0.63500
H1748       H  0.54190418  0.80904923  0.23542980     0.07900
F1749       F  0.54230702  0.81198299  0.13859077    -0.19600
F1750       F  0.55113143  0.78840230  0.15853221    -0.15800
F1751       F  0.57028350  0.81401539  0.15488376    -0.19300
F1752       F  0.52362046  0.84454826  0.23660880    -0.22700
F1753       F  0.49466683  0.84128863  0.22256751    -0.24100
F1754       F  0.51245683  0.86752828  0.21705683    -0.18100
F1755       F  0.55367302  0.79439440  0.26370259    -0.20600
F1756       F  0.53983942  0.76551342  0.26685229    -0.21800
F1757       F  0.52840180  0.79100198  0.28334899    -0.19000
F1758       F  0.46845078  0.78846086  0.20174226    -0.19000
F1759       F  0.49563979  0.78757880  0.18461560    -0.22900
F1760       F  0.48328471  0.81596024  0.19405143    -0.24500
C1761       C  0.67903043  0.81585651  0.03829221    -0.11300
C1762       C  0.66953701  0.79975940  0.03058516     0.11300
C1763       C  0.64925008  0.79926031  0.03057902    -0.03100
C1764       C  0.63912609  0.81544244  0.03725699    -0.05800
C1765       C  0.64847750  0.83149081  0.04543966    -0.16600
C1766       C  0.66886815  0.83158058  0.04620138     0.02300
C1767       C  0.68124976  0.78356615  0.02271410     0.12300
C1768       C  0.63836544  0.78125203  0.02465330     0.62900
H1769       H  0.62357799  0.81519268  0.03712700     0.12300
C1770       C  0.67985914  0.84753785  0.05627130     0.55000
H1771       H  0.69457754  0.81574059  0.03847455     0.08100
C1772       C  0.68764099  0.78349181  0.00343905    -0.05700
C1773       C  0.69879671  0.76789178  0.99690138    -0.06500
C1774       C  0.70491791  0.75295674  0.00924201    -0.16000
C1775       C  0.69885274  0.75341149  0.02872564    -0.01600
C1776       C  0.68672589  0.76850382  0.03499109    -0.09200
C1777       C  0.68358045  0.80041634  0.99018833     0.65100
H1778       H  0.70381286  0.76783061  0.98216491     0.10500
C1779       C  0.70617552  0.73888994  0.04314962     0.63500
H1780       H  0.68195304  0.76909066  0.04979320     0.07900
F1781       F  0.67693022  0.86476553  0.04680763    -0.19600
F1782       F  0.69940693  0.84400466  0.05663525    -0.15800
F1783       F  0.67366747  0.84914827  0.07510477    -0.19300
F1784       F  0.64334058  0.76627007  0.03671799    -0.22700
F1785       F  0.64283696  0.77626738  0.00595969    -0.24100
F1786       F  0.61867229  0.78373159  0.02581704    -0.18100
F1787       F  0.69952490  0.74263941  0.06153130    -0.20600
F1788       F  0.72601664  0.73948722  0.04360630    -0.21800
F1789       F  0.70012019  0.72067805  0.03798087    -0.19000
F1790       F  0.69090628  0.79751416  0.97192171    -0.19000
F1791       F  0.69195396  0.81686322  0.99761136    -0.22900
F1792       F  0.66403028  0.80335269  0.98854629    -0.24500
C1793       C  0.29703024  0.53605013  0.17557424    -0.11300
C1794       C  0.29908648  0.53232348  0.19513772     0.11300
C1795       C  0.31742267  0.53371945  0.20377953    -0.03100
C1796       C  0.33299823  0.54045477  0.19261947    -0.05800
C1797       C  0.33093474  0.54499681  0.17294737    -0.16600
C1798       C  0.31253296  0.54212016  0.16414548     0.02300
C1799       C  0.28171513  0.52618225  0.20591553     0.12300
C1800       C  0.32052090  0.52752848  0.22450990     0.62900
H1801       H  0.34697207  0.54208036  0.19923173     0.12300
C1802       C  0.30880228  0.54525450  0.14282339     0.55000
H1803       H  0.28289699  0.53418386  0.16934977     0.08100
C1804       C  0.26950417  0.53951561  0.21528386    -0.05700
C1805       C  0.25447514  0.53239327  0.22687022    -0.06500
C1806       C  0.25082960  0.51259555  0.22826374    -0.16000
C1807       C  0.26131386  0.49962711  0.21665062    -0.01600
C1808       C  0.27688063  0.50661992  0.20583773    -0.09200
C1809       C  0.27248050  0.56105395  0.21312382     0.65100
H1810       H  0.24617595  0.54212773  0.23574062     0.10500
C1811       C  0.25591938  0.47850118  0.21578854     0.63500
H1812       H  0.28568747  0.49681891  0.19755485     0.07900
F1813       F  0.31219164  0.56426412  0.13801169    -0.19600
F1814       F  0.29004087  0.54111480  0.13770384    -0.15800
F1815       F  0.32055626  0.53320748  0.13226065    -0.19300
F1816       F  0.31638105  0.50816084  0.22631810    -0.22700
F1817       F  0.30866000  0.53776463  0.23669471    -0.24100
F1818       F  0.33928367  0.53045184  0.23038918    -0.18100
F1819       F  0.26717584  0.46851837  0.20277651    -0.20600
F1820       F  0.23696066  0.47682330  0.21009144    -0.21800
F1821       F  0.25810748  0.47005396  0.23363363    -0.19000
F1822       F  0.25833834  0.57141802  0.22249878    -0.19000
F1823       F  0.27194575  0.56598620  0.19387444    -0.22900
F1824       F  0.29004916  0.56640424  0.22063451    -0.24500
C1825       C  0.29353062  0.48510258  0.04063580    -0.11300
C1826       C  0.28535436  0.50324529  0.04423793     0.11300
C1827       C  0.26634629  0.50696972  0.03837108    -0.03100
C1828       C  0.25606662  0.49233204  0.02911849    -0.05800
C1829       C  0.26429770  0.47436039  0.02454085    -0.16600
C1830       C  0.28328691  0.47043965  0.03087563     0.02300
C1831       C  0.29664368  0.51815735  0.05461010     0.12300
C1832       C  0.25710731  0.52658271  0.04133234     0.62900
H1833       H  0.24144554  0.49519745  0.02471143     0.12300
C1834       C  0.29284623  0.45121316  0.02714882     0.55000
H1835       H  0.30811345  0.48262137  0.04541954     0.08100
C1836       C  0.29711035  0.51881245  0.07488611    -0.05700
C1837       C  0.30654861  0.53423045  0.08385759    -0.06500
C1838       C  0.31616848  0.54862814  0.07337329    -0.16000
C1839       C  0.31567217  0.54796870  0.05295739    -0.01600
C1840       C  0.30584812  0.53263325  0.04394221    -0.09200
C1841       C  0.28792170  0.50310914  0.08700791     0.65100
H1842       H  0.30679794  0.53493941  0.09934882     0.10500
C1843       C  0.32591669  0.56284537  0.04069104     0.63500
H1844       H  0.30521179  0.53177435  0.02841363     0.07900
F1845       F  0.31139817  0.45068434  0.03428977    -0.19600
F1846       F  0.29366814  0.44772743  0.00759094    -0.15800
F1847       F  0.28250291  0.43675020  0.03604527    -0.19300
F1848       F  0.26705733  0.54032263  0.03098289    -0.22700
F1849       F  0.25737616  0.53152073  0.06057438    -0.24100
F1850       F  0.23819520  0.52687937  0.03522460    -0.18100
F1851       F  0.34533071  0.56276739  0.04487849    -0.20600
F1852       F  0.31844639  0.58090614  0.04426558    -0.21800
F1853       F  0.32379814  0.55917343  0.02123948    -0.19000
F1854       F  0.29022141  0.50644828  0.10649657    -0.19000
F1855       F  0.29631328  0.48561395  0.08277895    -0.22900
F1856       F  0.26847512  0.50201072  0.08322402    -0.24500
C1857       C  0.30456317  0.72226169  0.04024272    -0.11300
C1858       C  0.31066660  0.70835692  0.02690591     0.11300
C1859       C  0.30722640  0.71142506  0.00706186    -0.03100
C1860       C  0.29676246  0.72778177  0.00138474    -0.05800
C1861       C  0.28963567  0.74104741  0.01481979    -0.16600
C1862       C  0.29431729  0.73877072  0.03447080     0.02300
C1863       C  0.32013847  0.69050601  0.03420259     0.12300
C1864       C  0.31366012  0.69700814  0.99199540     0.62900
H1865       H  0.29268650  0.72953626  0.98645668     0.12300
C1866       C  0.28778180  0.75333985  0.04929787     0.55000
H1867       H  0.30723627  0.71968868  0.05535580     0.08100
C1868       C  0.33935304  0.69047219  0.04067851    -0.05700
C1869       C  0.34730971  0.67318784  0.04750398    -0.06500
C1870       C  0.33658710  0.65598423  0.04899006    -0.16000
C1871       C  0.31715843  0.65611330  0.04246684    -0.01600
C1872       C  0.30941149  0.67341372  0.03509191    -0.09200
C1873       C  0.35125204  0.70880567  0.04104625     0.65100
H1874       H  0.36195621  0.67337216  0.05267387     0.10500
C1875       C  0.30439563  0.63840194  0.04335764     0.63500
H1876       H  0.29460342  0.67392443  0.03037117     0.07900
F1877       F  0.29491888  0.74919837  0.06740687    -0.19600
F1878       F  0.26796213  0.75353659  0.05031714    -0.15800
F1879       F  0.29425369  0.77141915  0.04411925    -0.19300
F1880       F  0.30326662  0.68017935  0.99391868    -0.22700
F1881       F  0.33298169  0.69305105  0.99419430    -0.24100
F1882       F  0.31089411  0.70389341  0.97352496    -0.18100
F1883       F  0.28693287  0.64135235  0.03430525    -0.20600
F1884       F  0.30063587  0.63377082  0.06231680    -0.21800
F1885       F  0.31333100  0.62311103  0.03433703    -0.19000
F1886       F  0.37014491  0.70531504  0.04612703    -0.19000
F1887       F  0.34365405  0.72144595  0.05435197    -0.22900
F1888       F  0.35121066  0.71736735  0.02311411    -0.24500
C1889       C  0.46597733  0.65995389  0.19900385    -0.11300
C1890       C  0.46754392  0.67981484  0.19693900     0.11300
C1891       C  0.46321779  0.68840049  0.17902639    -0.03100
C1892       C  0.45607049  0.67673445  0.16401939    -0.05800
C1893       C  0.45310403  0.65680612  0.16635447    -0.16600
C1894       C  0.45862014  0.64816397  0.18429580     0.02300
C1895       C  0.47319812  0.69118564  0.21417873     0.12300
C1896       C  0.46606016  0.70982098  0.17590146     0.62900
H1897       H  0.45224657  0.68330899  0.15045440     0.12300
C1898       C  0.45635912  0.62681455  0.18873302     0.55000
H1899       H  0.46987043  0.65388090  0.21279737     0.08100
C1900       C  0.45954530  0.69708985  0.22810835    -0.05700
C1901       C  0.46564085  0.70892512  0.24342681    -0.06500
C1902       C  0.48498593  0.71409849  0.24557086    -0.16000
C1903       C  0.49886200  0.70647124  0.23276357    -0.01600
C1904       C  0.49268447  0.69523369  0.21710254    -0.09200
C1905       C  0.43870922  0.69076006  0.22676849     0.65100
H1906       H  0.45526558  0.71479348  0.25343108     0.10500
C1907       C  0.52014107  0.71014129  0.23580950     0.63500
H1908       H  0.50299010  0.68979053  0.20679037     0.07900
F1909       F  0.43707752  0.62204012  0.18921768    -0.19600
F1910       F  0.46405023  0.62192047  0.20643432    -0.15800
F1911       F  0.46579225  0.61594975  0.17502067    -0.19300
F1912       F  0.48516942  0.71449399  0.17860391    -0.22700
F1913       F  0.45501933  0.72012041  0.18880310    -0.24100
F1914       F  0.46089810  0.71538134  0.15750611    -0.18100
F1915       F  0.53130992  0.69922190  0.22349508    -0.20600
F1916       F  0.52505558  0.70537127  0.25447786    -0.21800
F1917       F  0.52439568  0.72929284  0.23263932    -0.19000
F1918       F  0.42769153  0.69849772  0.24140285    -0.19000
F1919       F  0.43766299  0.67095281  0.22813288    -0.22900
F1920       F  0.43088658  0.69645982  0.20942469    -0.24500
C1921       C  0.50982289  0.79963617  0.00634593    -0.11300
C1922       C  0.52869758  0.79724448  0.01285957     0.11300
C1923       C  0.54127041  0.78465213  0.00293480    -0.03100
C1924       C  0.53427065  0.77451831  0.98683216    -0.05800
C1925       C  0.51513570  0.77632333  0.98083055    -0.16600
C1926       C  0.50273968  0.78920047  0.99053969     0.02300
C1927       C  0.53481863  0.80780294  0.03040184     0.12300
C1928       C  0.56169171  0.78131919  0.00987359     0.62900
H1929       H  0.54329884  0.76409328  0.97961748     0.12300
C1930       C  0.48187088  0.79125889  0.98461995     0.55000
H1931       H  0.50045344  0.80922021  0.01424977     0.08100
C1932       C  0.54084423  0.82721621  0.02960716    -0.05700
C1933       C  0.54824354  0.83575383  0.04637605    -0.06500
C1934       C  0.54947307  0.82557514  0.06376466    -0.16000
C1935       C  0.54270325  0.80646473  0.06477242    -0.01600
C1936       C  0.53518186  0.79790736  0.04801498    -0.09200
C1937       C  0.53964198  0.83872676  0.01108026     0.65100
H1938       H  0.55357571  0.85038768  0.04596610     0.10500
C1939       C  0.54436008  0.79502132  0.08322956     0.63500
H1940       H  0.53017712  0.78316370  0.04832868     0.07900
F1941       F  0.47268646  0.80565140  0.99482993    -0.19600
F1942       F  0.47218052  0.77421039  0.98790441    -0.15800
F1943       F  0.48083369  0.79573306  0.96528159    -0.19300
F1944       F  0.56137046  0.77249999  0.02767748    -0.22700
F1945       F  0.57133516  0.79864383  0.01138131    -0.24100
F1946       F  0.57190276  0.76965261  0.99741293    -0.18100
F1947       F  0.53411155  0.80407692  0.09763673    -0.20600
F1948       F  0.56344075  0.79376806  0.08861656    -0.21800
F1949       F  0.53723590  0.77654866  0.08117684    -0.19000
F1950       F  0.54765013  0.85684651  0.01306301    -0.19000
F1951       F  0.52062358  0.84094326  0.00585997    -0.22900
F1952       F  0.54930142  0.82931231  0.99648799    -0.24500
C1953       C  0.48409506  0.68993182  0.00024626    -0.11300
C1954       C  0.46503278  0.69269810  0.00625472     0.11300
C1955       C  0.45375619  0.70707785  0.99723370    -0.03100
C1956       C  0.46212480  0.71850671  0.98269324    -0.05800
C1957       C  0.48131448  0.71608445  0.97706410    -0.16600
C1958       C  0.49245922  0.70148469  0.98579742     0.02300
C1959       C  0.45741911  0.68110382  0.02269224     0.12300
C1960       C  0.43316163  0.71077730  0.00346137     0.62900
H1961       H  0.45406372  0.73020283  0.97635021     0.12300
C1962       C  0.51331257  0.69864682  0.98013811     0.55000
H1963       H  0.49256323  0.67902655  0.00741102     0.08100
C1964       C  0.44887848  0.66286027  0.01996735    -0.05700
C1965       C  0.43958833  0.65403958  0.03566683    -0.06500
C1966       C  0.43883632  0.66261731  0.05406141    -0.16000
C1967       C  0.44914781  0.67994762  0.05717619    -0.01600
C1968       C  0.45822150  0.68893858  0.04133201    -0.09200
C1969       C  0.44917265  0.65296169  0.00046051     0.65100
H1970       H  0.43225525  0.64047304  0.03349557     0.10500
C1971       C  0.45010071  0.68922895  0.07688272     0.63500
H1972       H  0.46550992  0.70256966  0.04320801     0.07900
F1973       F  0.51454781  0.69592637  0.96047462    -0.19600
F1974       F  0.52131584  0.68281320  0.98911447    -0.15800
F1975       F  0.52395808  0.71468209  0.98516557    -0.19300
F1976       F  0.43270278  0.71616742  0.02258342    -0.22700
F1977       F  0.42227390  0.69432861  0.00113853    -0.24100
F1978       F  0.42471641  0.72527192  0.99279440    -0.18100
F1979       F  0.45959281  0.67712604  0.08946297    -0.20600
F1980       F  0.43175412  0.69270720  0.08364102    -0.21800
F1981       F  0.45988026  0.70656254  0.07647432    -0.19000
F1982       F  0.44156011  0.63458614  0.00135447    -0.19000
F1983       F  0.46783557  0.65146653  0.99387752    -0.22900
F1984       F  0.43857732  0.66339867  0.98733159    -0.24500
C1985       C  0.50541297  0.54567715  0.21734992    -0.11300
C1986       C  0.49014869  0.53350565  0.21208164     0.11300
C1987       C  0.49190190  0.51340245  0.21472044    -0.03100
C1988       C  0.50844863  0.50632383  0.22378405    -0.05800
C1989       C  0.52304569  0.51859093  0.23045074    -0.16600
C1990       C  0.52182779  0.53854192  0.22683331     0.02300
C1991       C  0.47266279  0.54213855  0.20341833     0.12300
C1992       C  0.47604147  0.49953720  0.20881004     0.62900
H1993       H  0.50966564  0.49108421  0.22678805     0.12300
C1994       C  0.53738116  0.55217712  0.23369206     0.55000
H1995       H  0.50404634  0.56093047  0.21452786     0.08100
C1996       C  0.45865756  0.55202917  0.21447568    -0.05700
C1997       C  0.44296659  0.56060695  0.20491529    -0.06500
C1998       C  0.44083970  0.55902615  0.18493709    -0.16000
C1999       C  0.45424900  0.54817857  0.17416778    -0.01600
C2000       C  0.47022724  0.54034118  0.18354360    -0.09200
C2001       C  0.46046741  0.55373980  0.23616162     0.65100
H2002       H  0.43273537  0.56926270  0.21281439     0.10500
C2003       C  0.45172685  0.54513608  0.15270424     0.63500
H2004       H  0.48116881  0.53292433  0.17534323     0.07900
F2005       F  0.53945675  0.55073363  0.25341967    -0.19600
F2006       F  0.53313615  0.57111451  0.22931014    -0.15800
F2007       F  0.55457081  0.54749520  0.22492442    -0.19300
F2008       F  0.47336413  0.50014943  0.18914470    -0.22700
F2009       F  0.45907772  0.50445429  0.21787535    -0.24100
F2010       F  0.48036987  0.48073577  0.21368118    -0.18100
F2011       F  0.45402860  0.56236662  0.14308726    -0.20600
F2012       F  0.43355549  0.53791599  0.14914328    -0.21800
F2013       F  0.46495160  0.53221108  0.14541245    -0.19000
F2014       F  0.44455494  0.56250584  0.24423727    -0.19000
F2015       F  0.47645080  0.56457823  0.24080608    -0.22900
F2016       F  0.46225647  0.53566172  0.24422582    -0.24500
C2017       C  0.29449466  0.49205095  0.49390680    -0.11300
C2018       C  0.29749653  0.49211835  0.47401816     0.11300
C2019       C  0.29116507  0.50807112  0.46299759    -0.03100
C2020       C  0.28128900  0.52315731  0.47230837    -0.05800
C2021       C  0.27763998  0.52267210  0.49213802    -0.16600
C2022       C  0.28535645  0.50738601  0.50330306     0.02300
C2023       C  0.30766960  0.47542715  0.46523930     0.12300
C2024       C  0.29412328  0.50875675  0.44139475     0.62900
H2025       H  0.27521790  0.53479674  0.46395464     0.12300
C2026       C  0.28431255  0.50645349  0.52512123     0.55000
H2027       H  0.29956115  0.47990998  0.50225816     0.08100
C2028       C  0.32793327  0.47382590  0.46580930    -0.05700
C2029       C  0.33674682  0.45859214  0.45582809    -0.06500
C2030       C  0.32594452  0.44460204  0.44607467    -0.16000
C2031       C  0.30568223  0.44542059  0.44663198    -0.01600
C2032       C  0.29680540  0.46094105  0.45622890    -0.09200
C2033       C  0.34016510  0.48819871  0.47683161     0.65100
H2034       H  0.35225853  0.45762133  0.45527781     0.10500
C2035       C  0.29367492  0.43023886  0.43661908     0.63500
H2036       H  0.28130628  0.46213520  0.45643018     0.07900
F2037       F  0.30226757  0.50209075  0.53242230    -0.19600
F2038       F  0.27158717  0.49214489  0.53049009    -0.15800
F2039       F  0.27868562  0.52362701  0.53339519    -0.19300
F2040       F  0.28370397  0.49419895  0.43275669    -0.22700
F2041       F  0.31335326  0.50644479  0.43706471    -0.24100
F2042       F  0.28816393  0.52609846  0.43367259    -0.18100
F2043       F  0.27421474  0.43334824  0.43914446    -0.20600
F2044       F  0.29806802  0.41232021  0.44401320    -0.21800
F2045       F  0.29754303  0.43037266  0.41711791    -0.19000
F2046       F  0.35958543  0.48461417  0.47462973    -0.19000
F2047       F  0.33593529  0.48711266  0.49621759    -0.22900
F2048       F  0.33656471  0.50665270  0.47041013    -0.24500
C2049       C  0.46252764  0.45602738  0.30946347    -0.11300
C2050       C  0.48073509  0.45538361  0.31822205     0.11300
C2051       C  0.48293792  0.44613121  0.33612801    -0.03100
C2052       C  0.46707146  0.43655805  0.34402678    -0.05800
C2053       C  0.44907095  0.43601750  0.33477825    -0.16600
C2054       C  0.44648395  0.44652374  0.31753909     0.02300
C2055       C  0.49745526  0.46394772  0.30807427     0.12300
C2056       C  0.50202478  0.44620207  0.34675818     0.62900
H2057       H  0.46871191  0.42908600  0.35758483     0.12300
C2058       C  0.42714684  0.44737125  0.30757963     0.55000
H2059       H  0.46112621  0.46371357  0.29600054     0.08100
C2060       C  0.50732186  0.45382823  0.29340549    -0.05700
C2061       C  0.52258464  0.46301400  0.28384954    -0.06500
C2062       C  0.52800612  0.48187509  0.28839933    -0.16000
C2063       C  0.51882113  0.49161065  0.30370242    -0.01600
C2064       C  0.50359813  0.48242961  0.31335673    -0.09200
C2065       C  0.50127516  0.43371038  0.28738245     0.65100
H2066       H  0.52949956  0.45606067  0.27175052     0.10500
C2067       C  0.52490433  0.51178002  0.30940135     0.63500
H2068       H  0.49597838  0.48981964  0.32474350     0.07900
F2069       F  0.42812981  0.45723047  0.29032170    -0.19600
F2070       F  0.41411308  0.45673694  0.31929025    -0.15800
F2071       F  0.42061187  0.42896362  0.30380245    -0.19300
F2072       F  0.50679710  0.46481884  0.35183719    -0.22700
F2073       F  0.51634112  0.43875784  0.33519048    -0.24100
F2074       F  0.50131442  0.43529804  0.36339035    -0.18100
F2075       F  0.52136594  0.52443909  0.29450002    -0.20600
F2076       F  0.54432314  0.51191442  0.31354976    -0.21800
F2077       F  0.51510911  0.51820860  0.32548624    -0.19000
F2078       F  0.51336659  0.42619063  0.27349114    -0.19000
F2079       F  0.48289970  0.43415535  0.27990387    -0.22900
F2080       F  0.50161032  0.42150385  0.30305173    -0.24500
C2081       C  0.29796103  0.29028615  0.50831588    -0.11300
C2082       C  0.31060598  0.28819038  0.49283365     0.11300
C2083       C  0.31424736  0.26947827  0.48557954    -0.03100
C2084       C  0.30221192  0.25408882  0.49135822    -0.05800
C2085       C  0.28788746  0.25676729  0.50532403    -0.16600
C2086       C  0.28738399  0.27458906  0.51542583     0.02300
C2087       C  0.31915515  0.30584231  0.48397152     0.12300
C2088       C  0.33085500  0.26596241  0.47195972     0.62900
H2089       H  0.30323270  0.24026943  0.48426158     0.12300
C2090       C  0.27561574  0.27774554  0.53352209     0.55000
H2091       H  0.29617482  0.30436404  0.51477902     0.08100
C2092       C  0.30993630  0.31560664  0.46862830    -0.05700
C2093       C  0.31938111  0.33122428  0.45973158    -0.06500
C2094       C  0.33754951  0.33748298  0.46585824    -0.16000
C2095       C  0.34589726  0.32884954  0.48240211    -0.01600
C2096       C  0.33658458  0.31302525  0.49108265    -0.09200
C2097       C  0.29026846  0.30934500  0.46155812     0.65100
H2098       H  0.31296776  0.33817360  0.44738136     0.10500
C2099       C  0.36444172  0.33641697  0.49108637     0.63500
H2100       H  0.34309779  0.30582917  0.50324115     0.07900
F2101       F  0.25973543  0.28885467  0.52926176    -0.19600
F2102       F  0.28663694  0.28728153  0.54707853    -0.15800
F2103       F  0.26965093  0.26061381  0.54169746    -0.19300
F2104       F  0.34780691  0.27123643  0.48090228    -0.22700
F2105       F  0.32867259  0.27671306  0.45540446    -0.24100
F2106       F  0.33223965  0.24678080  0.46685063    -0.18100
F2107       F  0.36715422  0.32959807  0.50958003    -0.20600
F2108       F  0.36399251  0.35629513  0.49198650    -0.21800
F2109       F  0.37990071  0.33069000  0.48003730    -0.19000
F2110       F  0.28357627  0.32107899  0.44695695    -0.19000
F2111       F  0.27722151  0.31011347  0.47652165    -0.22900
F2112       F  0.29111762  0.29073934  0.45462740    -0.24500
C2113       C  0.28850932  0.49132815  0.30664530    -0.11300
C2114       C  0.28800617  0.47246186  0.31352909     0.11300
C2115       C  0.27077375  0.46164678  0.31172195    -0.03100
C2116       C  0.25538988  0.46939991  0.30087348    -0.05800
C2117       C  0.25657167  0.48784406  0.29269269    -0.16600
C2118       C  0.27286031  0.49945682  0.29690908     0.02300
C2119       C  0.30541432  0.46522476  0.32375752     0.12300
C2120       C  0.26889044  0.44183464  0.32068211     0.62900
H2121       H  0.24285909  0.46069549  0.29779953     0.12300
C2122       C  0.27446188  0.52037940  0.29091790     0.55000
H2123       H  0.30135735  0.49983381  0.30897382     0.08100
C2124       C  0.32142556  0.45744246  0.31394499    -0.05700
C2125       C  0.33739285  0.45103485  0.32474065    -0.06500
C2126       C  0.33808269  0.45259945  0.34498165    -0.16000
C2127       C  0.32235239  0.46177662  0.35454088    -0.01600
C2128       C  0.30641256  0.46785056  0.34364658    -0.09200
C2129       C  0.32164597  0.45618881  0.29213493     0.65100
H2130       H  0.34936871  0.44444371  0.31734661     0.10500
C2131       C  0.32194381  0.46531687  0.37612534     0.63500
H2132       H  0.29426273  0.47458820  0.35063885     0.07900
F2133       F  0.28480379  0.52166324  0.27399339    -0.19600
F2134       F  0.28388912  0.53083985  0.30499310    -0.15800
F2135       F  0.25659694  0.52867611  0.28838038    -0.19300
F2136       F  0.27337045  0.44262524  0.34002727    -0.22700
F2137       F  0.28122911  0.42916403  0.31167212    -0.24100
F2138       F  0.25037544  0.43475365  0.31906620    -0.18100
F2139       F  0.33865797  0.47445445  0.38183172    -0.20600
F2140       F  0.31994278  0.44804083  0.38573930    -0.21800
F2141       F  0.30671684  0.47689864  0.38154126    -0.19000
F2142       F  0.33824588  0.44763562  0.28532996    -0.19000
F2143       F  0.32054982  0.47445813  0.28438042    -0.22900
F2144       F  0.30616448  0.44549817  0.28575539    -0.24500
C2145       C  0.46821709  0.30915595  0.27632294    -0.11300
C2146       C  0.48079863  0.31327656  0.29154363     0.11300
C2147       C  0.50039694  0.30814128  0.29000850    -0.03100
C2148       C  0.50634435  0.29742717  0.27392446    -0.05800
C2149       C  0.49349151  0.29226217  0.25924161    -0.16600
C2150       C  0.47438987  0.29912488  0.25986370     0.02300
C2151       C  0.47273268  0.32190482  0.30935127     0.12300
C2152       C  0.51484820  0.31357044  0.30545560     0.62900
H2153       H  0.52087714  0.29192847  0.27324598     0.12300
C2154       C  0.46050011  0.29537049  0.24349780     0.55000
H2155       H  0.45331040  0.31332528  0.27774334     0.08100
C2156       C  0.46777837  0.34152187  0.31046675    -0.05700
C2157       C  0.45955918  0.34841971  0.32753961    -0.06500
C2158       C  0.45571211  0.33642606  0.34352535    -0.16000
C2159       C  0.46115053  0.31672130  0.34243851    -0.01600
C2160       C  0.46936882  0.30984416  0.32519333    -0.09200
C2161       C  0.47067861  0.35507915  0.29353923     0.65100
H2162       H  0.45550817  0.36341443  0.32812891     0.10500
C2163       C  0.45865703  0.30293558  0.35919856     0.63500
H2164       H  0.47315750  0.29480503  0.32380005     0.07900
F2165       F  0.44269174  0.30351407  0.24692257    -0.19600
F2166       F  0.45797351  0.27581635  0.24091903    -0.15800
F2167       F  0.46777952  0.30332279  0.22679739    -0.19300
F2168       F  0.51031111  0.30458816  0.32257637    -0.22700
F2169       F  0.51470751  0.33325102  0.30821512    -0.24100
F2170       F  0.53332816  0.30825145  0.30042772    -0.18100
F2171       F  0.46615621  0.28493650  0.35522378    -0.20600
F2172       F  0.43937718  0.30056506  0.36331187    -0.21800
F2173       F  0.46812383  0.31007608  0.37517109    -0.19000
F2174       F  0.46656452  0.37396302  0.29831669    -0.19000
F2175       F  0.45871704  0.34981408  0.27858890    -0.22900
F2176       F  0.48950469  0.35438087  0.28731464    -0.24500
C2177       C  0.46091286  0.26126540  0.49466451    -0.11300
C2178       C  0.45625197  0.28055812  0.49739399     0.11300
C2179       C  0.45758657  0.28858270  0.51612660    -0.03100
C2180       C  0.46655246  0.27776602  0.53090481    -0.05800
C2181       C  0.47250663  0.25872613  0.52768874    -0.16600
C2182       C  0.46789342  0.24992780  0.50974019     0.02300
C2183       C  0.44873976  0.29137958  0.48051128     0.12300
C2184       C  0.44884319  0.30806561  0.52048959     0.62900
H2185       H  0.46943182  0.28425653  0.54476323     0.12300
C2186       C  0.47061233  0.22866302  0.50575492     0.55000
H2187       H  0.45879114  0.25491280  0.48057312     0.08100
C2188       C  0.46051384  0.30343194  0.46900176    -0.05700
C2189       C  0.45182718  0.31445141  0.45430940    -0.06500
C2190       C  0.43232608  0.31212191  0.44970433    -0.16000
C2191       C  0.42170153  0.29732922  0.45888581    -0.01600
C2192       C  0.42979526  0.28788006  0.47475917    -0.09200
C2193       C  0.48215313  0.30384071  0.47163335     0.65100
H2194       H  0.46008902  0.32514707  0.44658067     0.10500
C2195       C  0.40230919  0.29019498  0.45191134     0.63500
H2196       H  0.42137300  0.27727244  0.48248082     0.07900
F2197       F  0.48779934  0.22585451  0.49619015    -0.19600
F2198       F  0.45581764  0.22181130  0.49435460    -0.15800
F2199       F  0.47040317  0.21808499  0.52256130    -0.19300
F2200       F  0.42922784  0.30714105  0.51751254    -0.22700
F2201       F  0.45646698  0.32203809  0.50861792    -0.24100
F2202       F  0.45204628  0.31354615  0.53934628    -0.18100
F2203       F  0.40374349  0.27079644  0.44769274    -0.20600
F2204       F  0.39601759  0.29942916  0.43548785    -0.21800
F2205       F  0.38876636  0.29261260  0.46622850    -0.19000
F2206       F  0.49094566  0.31601647  0.45857055    -0.19000
F2207       F  0.48939520  0.28554014  0.46883411    -0.22900
F2208       F  0.48690012  0.30991260  0.48992943    -0.24500
C2209       C  0.53143519  0.08800719  0.28351488    -0.11300
C2210       C  0.52979085  0.06796120  0.28276564     0.11300
C2211       C  0.54543613  0.05657685  0.28911008    -0.03100
C2212       C  0.56039096  0.06547685  0.29961093    -0.05800
C2213       C  0.56083554  0.08548165  0.30234705    -0.16600
C2214       C  0.54716937  0.09702189  0.29245048     0.02300
C2215       C  0.51163098  0.05944009  0.27509196     0.12300
C2216       C  0.54663298  0.03538278  0.28411010     0.62900
H2217       H  0.57149836  0.05682815  0.30620819     0.12300
C2218       C  0.54896714  0.11863866  0.28978217     0.55000
H2219       H  0.52026824  0.09672524  0.27705977     0.08100
C2220       C  0.49624728  0.05392397  0.28732303    -0.05700
C2221       C  0.47993197  0.04488100  0.27922285    -0.06500
C2222       C  0.47839242  0.04179536  0.25934206    -0.16000
C2223       C  0.49286403  0.04936131  0.24704223    -0.01600
C2224       C  0.50940250  0.05769783  0.25516734    -0.09200
C2225       C  0.49724130  0.05736028  0.30886038     0.65100
H2226       H  0.46884550  0.03906167  0.28847239     0.10500
C2227       C  0.49169479  0.04867627  0.22525214     0.63500
H2228       H  0.52080668  0.06277536  0.24583262     0.07900
F2229       F  0.53251762  0.12759000  0.29632153    -0.19600
F2230       F  0.55092100  0.12250142  0.27036943    -0.15800
F2231       F  0.56462780  0.12654190  0.29908709    -0.19300
F2232       F  0.54673324  0.03334956  0.26432787    -0.22700
F2233       F  0.53108955  0.02551596  0.29151405    -0.24100
F2234       F  0.56322863  0.02708402  0.29123910    -0.18100
F2235       F  0.49505492  0.06686382  0.21791597    -0.20600
F2236       F  0.47392739  0.04274158  0.21862861    -0.21800
F2237       F  0.50557174  0.03629084  0.21828905    -0.19000
F2238       F  0.48050068  0.05174317  0.31801135    -0.19000
F2239       F  0.50003425  0.07672103  0.31244235    -0.22900
F2240       F  0.51227890  0.04711408  0.31674922    -0.24500
C2241       C  0.72651411  0.02400785  0.29279367    -0.11300
C2242       C  0.71977309  0.04198104  0.28658693     0.11300
C2243       C  0.72954104  0.05179998  0.27162453    -0.03100
C2244       C  0.74509832  0.04263649  0.26262497    -0.05800
C2245       C  0.75071129  0.02399482  0.26774143    -0.16600
C2246       C  0.74163599  0.01459030  0.28331244     0.02300
C2247       C  0.70250013  0.05021812  0.29603366     0.12300
C2248       C  0.72292690  0.07133523  0.26439996     0.62900
H2249       H  0.75209369  0.04935575  0.25043596     0.12300
C2250       C  0.74674932  0.99442417  0.28990623     0.55000
H2251       H  0.71936598  0.01690661  0.30468620     0.08100
C2252       C  0.68363298  0.04341428  0.29231513    -0.05700
C2253       C  0.66803838  0.05209366  0.30199194    -0.06500
C2254       C  0.67091616  0.06734536  0.31490673    -0.16000
C2255       C  0.68974280  0.07475742  0.31764654    -0.01600
C2256       C  0.70524563  0.06553922  0.30871758    -0.09200
C2257       C  0.68007423  0.02702561  0.27830830     0.65100
H2258       H  0.65358704  0.04671485  0.29995214     0.10500
C2259       C  0.69347080  0.09295558  0.32916276     0.63500
H2260       H  0.71977848  0.07037450  0.31143752     0.07900
F2261       F  0.73113429  0.98243575  0.28712761    -0.19600
F2262       F  0.75119681  0.99479944  0.30927701    -0.15800
F2263       F  0.76230557  0.98674534  0.28024212    -0.19300
F2264       F  0.72505782  0.08500749  0.27865399    -0.22700
F2265       F  0.70384210  0.07038355  0.25901550    -0.24100
F2266       F  0.73344391  0.07738692  0.24862449    -0.18100
F2267       F  0.71218170  0.09937777  0.32707733    -0.20600
F2268       F  0.69029940  0.08968811  0.34847896    -0.21800
F2269       F  0.68145005  0.10740232  0.32276067    -0.19000
F2270       F  0.66066666  0.02375170  0.27552624    -0.19000
F2271       F  0.68813317  0.01027622  0.28528543    -0.22900
F2272       F  0.68817915  0.03130565  0.26066456    -0.24500
C2273       C  0.69710022  0.23527180  0.47158272    -0.11300
C2274       C  0.70578003  0.21800279  0.46569208     0.11300
C2275       C  0.72596075  0.21613785  0.46673478    -0.03100
C2276       C  0.73659658  0.23093484  0.47533860    -0.05800
C2277       C  0.72789131  0.24758263  0.48283022    -0.16600
C2278       C  0.70791142  0.25035881  0.47994433     0.02300
C2279       C  0.69373597  0.20230024  0.45754228     0.12300
C2280       C  0.73623395  0.19838613  0.45917062     0.62900
H2281       H  0.75198511  0.22930177  0.47685793     0.12300
C2282       C  0.69806557  0.26895945  0.48557523     0.55000
H2283       H  0.68173777  0.23673681  0.46969328     0.08100
C2284       C  0.68454050  0.18831215  0.46917690    -0.05700
C2285       C  0.67538310  0.17254754  0.46019425    -0.06500
C2286       C  0.67473513  0.17083786  0.44009576    -0.16000
C2287       C  0.68295536  0.18553245  0.42856618    -0.01600
C2288       C  0.69248510  0.20092106  0.43753893    -0.09200
C2289       C  0.68385305  0.19046371  0.49087332     0.65100
H2290       H  0.66829720  0.16165165  0.46876360     0.10500
C2291       C  0.68083652  0.18554683  0.40689026     0.63500
H2292       H  0.69912181  0.21212140  0.42899395     0.07900
F2293       F  0.70057022  0.27247830  0.50497805    -0.19600
F2294       F  0.67853504  0.26836221  0.48190472    -0.15800
F2295       F  0.70581843  0.28396315  0.47506450    -0.19300
F2296       F  0.73311428  0.19653639  0.43963752    -0.22700
F2297       F  0.72945508  0.18216313  0.46843711    -0.24100
F2298       F  0.75587944  0.19937862  0.46206782    -0.18100
F2299       F  0.69083529  0.20053366  0.39840564    -0.20600
F2300       F  0.66167349  0.18763982  0.40230706    -0.21800
F2301       F  0.68768484  0.16851213  0.39930348    -0.19000
F2302       F  0.67504613  0.17487301  0.49957357    -0.19000
F2303       F  0.67354560  0.20679640  0.49553078    -0.22900
F2304       F  0.70221567  0.19209170  0.49824498    -0.24500
C2305       C  0.52218897  0.17272652  0.31117590    -0.11300
C2306       C  0.52937319  0.19035836  0.30468247     0.11300
C2307       C  0.54269289  0.20068053  0.31616387    -0.03100
C2308       C  0.55058707  0.19157488  0.33239160    -0.05800
C2309       C  0.54456095  0.17318114  0.33803881    -0.16600
C2310       C  0.52906367  0.16424704  0.32818073     0.02300
C2311       C  0.52048414  0.19921363  0.28753702     0.12300
C2312       C  0.54839623  0.22125785  0.31138949     0.62900
H2313       H  0.56204053  0.19847633  0.34035654     0.12300
C2314       C  0.51879189  0.14678482  0.33639807     0.55000
H2315       H  0.51087486  0.16584445  0.30298762     0.08100
C2316       C  0.52924772  0.19914289  0.26916266    -0.05700
C2317       C  0.52251077  0.21220984  0.25519809    -0.06500
C2318       C  0.50701320  0.22449206  0.25917558    -0.16000
C2319       C  0.49633531  0.22186190  0.27640133    -0.01600
C2320       C  0.50360397  0.20957049  0.29049653    -0.09200
C2321       C  0.54539461  0.18528933  0.26442351     0.65100
H2322       H  0.53003225  0.21376920  0.24166586     0.10500
C2323       C  0.47826813  0.23304625  0.28126352     0.63500
H2324       H  0.49666824  0.20887875  0.30444248     0.07900
F2325       F  0.53004841  0.13052820  0.33493501    -0.19600
F2326       F  0.50168732  0.14320841  0.32688057    -0.15800
F2327       F  0.51454214  0.15007476  0.35554270    -0.19300
F2328       F  0.53220842  0.23266781  0.31002684    -0.22700
F2329       F  0.55815995  0.22182738  0.29411518    -0.24100
F2330       F  0.56009872  0.22912115  0.32542987    -0.18100
F2331       F  0.46562478  0.22151809  0.29142702    -0.20600
F2332       F  0.46881438  0.23925583  0.26492234    -0.21800
F2333       F  0.48305870  0.24872389  0.29254741    -0.19000
F2334       F  0.55248623  0.18824366  0.24605952    -0.19000
F2335       F  0.53852609  0.16665799  0.26551671    -0.22900
F2336       F  0.56040689  0.18735993  0.27723908    -0.24500
C2337       C  0.55439669  0.20482776  0.46149690    -0.11300
C2338       C  0.55833917  0.19727004  0.47985287     0.11300
C2339       C  0.57009865  0.18080535  0.48144604    -0.03100
C2340       C  0.57799391  0.17282046  0.46467494    -0.05800
C2341       C  0.57446851  0.18039938  0.44619316    -0.16600
C2342       C  0.56221834  0.19664802  0.44453491     0.02300
C2343       C  0.54855923  0.20556526  0.49708658     0.12300
C2344       C  0.57416929  0.17148371  0.50081442     0.62900
H2345       H  0.58691874  0.16015741  0.46594618     0.12300
C2346       C  0.55731577  0.20530325  0.42514323     0.55000
H2347       H  0.54479197  0.21701929  0.46056249     0.08100
C2348       C  0.55470501  0.22266806  0.50635685    -0.05700
C2349       C  0.54448078  0.22922812  0.52265634    -0.06500
C2350       C  0.52848824  0.21922757  0.52991695    -0.16000
C2351       C  0.52282317  0.20180561  0.52085002    -0.01600
C2352       C  0.53284789  0.19548201  0.50454084    -0.09200
C2353       C  0.57162139  0.23416730  0.49879114     0.65100
H2354       H  0.54818163  0.24288420  0.52917619     0.10500
C2355       C  0.50616674  0.18931196  0.52732258     0.63500
H2356       H  0.52816337  0.18247576  0.49731281     0.07900
F2357       F  0.54662239  0.22197907  0.42697734    -0.19600
F2358       F  0.54665298  0.19225988  0.41458052    -0.15800
F2359       F  0.57395283  0.20980978  0.41525733    -0.19300
F2360       F  0.55754334  0.16347263  0.50813450    -0.22700
F2361       F  0.58106883  0.18505744  0.51360043    -0.24100
F2362       F  0.58769246  0.15698714  0.49938303    -0.18100
F2363       F  0.49350201  0.18677207  0.51220660    -0.20600
F2364       F  0.49616186  0.19688293  0.54263395    -0.21800
F2365       F  0.51315743  0.17152268  0.53274677    -0.19000
F2366       F  0.57552858  0.25001191  0.51021444    -0.19000
F2367       F  0.56771456  0.24065711  0.48042867    -0.22900
F2368       F  0.58783761  0.22273995  0.49833414    -0.24500
C2369       C  0.73654172  0.01549373  0.44707368    -0.11300
C2370       C  0.71673282  0.01468443  0.44373298     0.11300
C2371       C  0.70651714  0.99760665  0.44829079    -0.03100
C2372       C  0.71614645  0.98274578  0.45820562    -0.05800
C2373       C  0.73560875  0.98436514  0.46312649    -0.16600
C2374       C  0.74627291  0.00050202  0.45649586     0.02300
C2375       C  0.70755217  0.03141699  0.43399833     0.12300
C2376       C  0.68552762  0.99519195  0.44290346     0.62900
H2377       H  0.70828469  0.97023355  0.46311941     0.12300
C2378       C  0.76787442  0.00201070  0.45933696     0.55000
H2379       H  0.74429703  0.02823953  0.44257921     0.08100
C2380       C  0.69978958  0.04726509  0.44417919    -0.05700
C2381       C  0.69090119  0.06226357  0.43370857    -0.06500
C2382       C  0.69006227  0.06209458  0.41347094    -0.16000
C2383       C  0.69931383  0.04678050  0.40338190    -0.01600
C2384       C  0.70772918  0.03172487  0.41392316    -0.09200
C2385       C  0.70131859  0.04848549  0.46593973     0.65100
H2386       H  0.68413597  0.07402758  0.44131144     0.10500
C2387       C  0.70084312  0.04622256  0.38156431     0.63500
H2388       H  0.71437757  0.01975240  0.40652159     0.07900
F2389       F  0.77201406  0.00695005  0.47812979    -0.19600
F2390       F  0.77584917  0.01587402  0.44747496    -0.15800
F2391       F  0.77649958  0.98462426  0.45500962    -0.19300
F2392       F  0.68323789  0.99779099  0.42334015    -0.22700
F2393       F  0.67444749  0.00853063  0.45253808    -0.24100
F2394       F  0.67876741  0.97703492  0.44748740    -0.18100
F2395       F  0.70701208  0.06387228  0.37481646    -0.20600
F2396       F  0.68326975  0.04167805  0.37351265    -0.21800
F2397       F  0.71389784  0.03253142  0.37540411    -0.19000
F2398       F  0.69234495  0.06472905  0.47310378    -0.19000
F2399       F  0.72044626  0.04919072  0.47119993    -0.22900
F2400       F  0.69292620  0.03260684  0.47441314    -0.24500
C2401       C  0.20195008  0.45832961  0.54811332    -0.11300
C2402       C  0.19237170  0.47565330  0.55234964     0.11300
C2403       C  0.17529982  0.47503444  0.56335422    -0.03100
C2404       C  0.16909952  0.45722262  0.57083060    -0.05800
C2405       C  0.17899281  0.43995672  0.56716941    -0.16600
C2406       C  0.19561748  0.44043255  0.55545915     0.02300
C2407       C  0.20108408  0.49422135  0.54570079     0.12300
C2408       C  0.16349545  0.49304888  0.56687183     0.62900
H2409       H  0.15623030  0.45658945  0.57955641     0.12300
C2410       C  0.20720000  0.42236381  0.55171941     0.55000
H2411       H  0.21486785  0.45907020  0.53947786     0.08100
C2412       C  0.21704730  0.50257995  0.55525754    -0.05700
C2413       C  0.22633354  0.51850447  0.54677386    -0.06500
C2414       C  0.21975981  0.52677569  0.52956675    -0.16000
C2415       C  0.20278598  0.51956465  0.52105021    -0.01600
C2416       C  0.19383364  0.50317371  0.52909351    -0.09200
C2417       C  0.22424866  0.49471806  0.57433673     0.65100
H2418       H  0.23950902  0.52400789  0.55297014     0.10500
C2419       C  0.19473386  0.52886462  0.50309537     0.63500
H2420       H  0.18151418  0.49679920  0.52205556     0.07900
F2421       F  0.22299754  0.42597125  0.54018749    -0.19600
F2422       F  0.19594587  0.40878464  0.54255908    -0.15800
F2423       F  0.21364938  0.41495359  0.56900186    -0.19300
F2424       F  0.15602304  0.49949186  0.54963398    -0.22700
F2425       F  0.17478894  0.50736185  0.57478440    -0.24100
F2426       F  0.14834400  0.48964197  0.57929673    -0.18100
F2427       F  0.20766761  0.52711274  0.48810904    -0.20600
F2428       F  0.19144905  0.54815985  0.50663288    -0.21800
F2429       F  0.17756163  0.52051914  0.49753117    -0.19000
F2430       F  0.23974664  0.50511452  0.58124315    -0.19000
F2431       F  0.22995697  0.47580349  0.57236160    -0.22900
F2432       F  0.20973988  0.49570413  0.58785855    -0.24500
C2433       C  0.03707656  0.30511826  0.68727644    -0.11300
C2434       C  0.03089376  0.31507428  0.70371628     0.11300
C2435       C  0.03342431  0.33522165  0.70478375    -0.03100
C2436       C  0.04284532  0.34456610  0.68953295    -0.05800
C2437       C  0.04999322  0.33452077  0.67342223    -0.16600
C2438       C  0.04629436  0.31451979  0.67185787     0.02300
C2439       C  0.02300299  0.30353054  0.71990982     0.12300
C2440       C  0.02685517  0.34677189  0.72215275     0.62900
H2441       H  0.04533636  0.35991425  0.69041835     0.12300
C2442       C  0.05222646  0.30300883  0.65432269     0.55000
H2443       H  0.03487144  0.28970852  0.68682460     0.08100
C2444       C  0.00387754  0.29663418  0.71989421    -0.05700
C2445       C  0.99819548  0.28366411  0.73436916    -0.06500
C2446       C  0.01119147  0.27672224  0.74818601    -0.16000
C2447       C  0.03037983  0.28347714  0.74805883    -0.01600
C2448       C  0.03583732  0.29717426  0.73412912    -0.09200
C2449       C  0.98990738  0.30194040  0.70396040     0.65100
H2450       H  0.98377289  0.27781196  0.73427604     0.10500
C2451       C  0.04529123  0.27531262  0.76170142     0.63500
H2452       H  0.05051977  0.30229433  0.73355591     0.07900
F2453       F  0.04767030  0.28370889  0.65620335    -0.19600
F2454       F  0.07183211  0.30444558  0.65154447    -0.15800
F2455       F  0.04271707  0.30996510  0.63832663    -0.19300
F2456       F  0.03673209  0.34086462  0.73832436    -0.22700
F2457       F  0.00743720  0.34415849  0.72517783    -0.24100
F2458       F  0.03005661  0.36629335  0.71974639    -0.18100
F2459       F  0.04572217  0.25547220  0.76022823    -0.20600
F2460       F  0.04075688  0.28041411  0.78035924    -0.21800
F2461       F  0.06353442  0.28212215  0.75763901    -0.19000
F2462       F  0.97175836  0.29452201  0.70728180    -0.19000
F2463       F  0.99638910  0.29471242  0.68662781    -0.22900
F2464       F  0.98828310  0.32166775  0.70248787    -0.24500
C2465       C  0.05597739  0.32112199  0.52873529    -0.11300
C2466       C  0.04770942  0.30288114  0.53061820     0.11300
C2467       C  0.04753906  0.29379870  0.54890315    -0.03100
C2468       C  0.05576761  0.30344476  0.56480906    -0.05800
C2469       C  0.06446705  0.32154521  0.56276859    -0.16600
C2470       C  0.06434190  0.33067835  0.54449122     0.02300
C2471       C  0.03976475  0.29346406  0.51302730     0.12300
C2472       C  0.03917618  0.27378525  0.55141582     0.62900
H2473       H  0.05618848  0.29658593  0.57877370     0.12300
C2474       C  0.07267114  0.35068078  0.54167299     0.55000
H2475       H  0.05606456  0.32771250  0.51463777     0.08100
C2476       C  0.02127548  0.29787581  0.50574592    -0.05700
C2477       C  0.01407700  0.28707773  0.49017499    -0.06500
C2478       C  0.02501429  0.27267076  0.48127058    -0.16000
C2479       C  0.04395888  0.26917257  0.48772118    -0.01600
C2480       C  0.05107231  0.27973635  0.50351243    -0.09200
C2481       C  0.00924436  0.31393410  0.51430227     0.65100
H2482       H  0.99954483  0.28939971  0.48513808     0.10500
C2483       C  0.05637175  0.25403481  0.47819219     0.63500
H2484       H  0.06539528  0.27702167  0.50891997     0.07900
F2485       F  0.06948453  0.35755013  0.52327757    -0.19600
F2486       F  0.09227368  0.35043942  0.54466295    -0.15800
F2487       F  0.06417734  0.36327446  0.55448828    -0.19300
F2488       F  0.05017034  0.26063662  0.54137620    -0.22700
F2489       F  0.02056021  0.27324740  0.54452939    -0.24100
F2490       F  0.03882717  0.26825708  0.57052933    -0.18100
F2491       F  0.07428564  0.25274963  0.48672788    -0.20600
F2492       F  0.05892126  0.25872192  0.45904907    -0.21800
F2493       F  0.04761760  0.23622079  0.47945523    -0.19000
F2494       F  0.99104168  0.31455765  0.50632025    -0.19000
F2495       F  0.01809599  0.33138553  0.51080809    -0.22900
F2496       F  0.00726583  0.31143366  0.53391890    -0.24500
C2497       C  0.19401176  0.46071320  0.69415478    -0.11300
C2498       C  0.21055345  0.46561596  0.68366197     0.11300
C2499       C  0.21120597  0.46198355  0.66373153    -0.03100
C2500       C  0.19515193  0.45347011  0.65494404    -0.05800
C2501       C  0.17851527  0.44807269  0.66534053    -0.16600
C2502       C  0.17777857  0.45224702  0.68533317     0.02300
C2503       C  0.22702632  0.47450857  0.69400298     0.12300
C2504       C  0.22886897  0.46693299  0.65181028     0.62900
H2505       H  0.19570852  0.45068487  0.63964564     0.12300
C2506       C  0.16019028  0.44781047  0.69740944     0.55000
H2507       H  0.19397997  0.46363086  0.70945122     0.08100
C2508       C  0.22725530  0.49429356  0.69871968    -0.05700
C2509       C  0.24268946  0.50151172  0.70956232    -0.06500
C2510       C  0.25728678  0.48948573  0.71660464    -0.16000
C2511       C  0.25735935  0.46980686  0.71143196    -0.01600
C2512       C  0.24223692  0.46265930  0.69997029    -0.09200
C2513       C  0.21072019  0.50749033  0.69333257     0.65100
H2514       H  0.24264112  0.51642481  0.71408488     0.10500
C2515       C  0.27261969  0.45626374  0.71903734     0.63500
H2516       H  0.24167438  0.44753494  0.69628732     0.07900
F2517       F  0.16273665  0.45299332  0.71646396    -0.19600
F2518       F  0.15627321  0.42831928  0.69684414    -0.15800
F2519       F  0.14463743  0.45797160  0.69039866    -0.19300
F2520       F  0.24460578  0.45689060  0.65853345    -0.22700
F2521       F  0.23265039  0.48640416  0.65299512    -0.24100
F2522       F  0.22645277  0.46230969  0.63259770    -0.18100
F2523       F  0.27003873  0.43767390  0.71239129    -0.20600
F2524       F  0.27196598  0.45585533  0.73890592    -0.21800
F2525       F  0.29054487  0.46250741  0.71317454    -0.19000
F2526       F  0.21418157  0.52633192  0.69876143    -0.19000
F2527       F  0.19411908  0.50147979  0.70241799    -0.22900
F2528       F  0.20782982  0.50719978  0.67368758    -0.24500
C2529       C  0.20347754  0.28264490  0.50392236    -0.11300
C2530       C  0.19469655  0.28169389  0.52199455     0.11300
C2531       C  0.19608985  0.26448865  0.53286489    -0.03100
C2532       C  0.20864435  0.24985147  0.52648039    -0.05800
C2533       C  0.21897347  0.25173411  0.50925266    -0.16600
C2534       C  0.21512028  0.26765064  0.49709971     0.02300
C2535       C  0.18425878  0.29899445  0.52913226     0.12300
C2536       C  0.18459320  0.26181539  0.55120932     0.62900
H2537       H  0.21151764  0.23753711  0.53555269     0.12300
C2538       C  0.22364928  0.26970766  0.47714858     0.55000
H2539       H  0.20154470  0.29542817  0.49522036     0.08100
C2540       C  0.19358997  0.31369430  0.53977495    -0.05700
C2541       C  0.18252403  0.32893582  0.54734098    -0.06500
C2542       C  0.16260295  0.32991671  0.54439826    -0.16000
C2543       C  0.15376265  0.31627737  0.53194476    -0.01600
C2544       C  0.16474947  0.30090171  0.52472951    -0.09200
C2545       C  0.21506671  0.31299714  0.54348235     0.65100
H2546       H  0.18916507  0.33951339  0.55664061     0.10500
C2547       C  0.13265101  0.31732790  0.52663200     0.63500
H2548       H  0.15798965  0.28990289  0.51599961     0.07900
F2549       F  0.23767379  0.28379334  0.47737701    -0.19600
F2550       F  0.20940214  0.27502969  0.46434788    -0.15800
F2551       F  0.23157578  0.25271015  0.47054258    -0.19300
F2552       F  0.16522850  0.26346850  0.54717556    -0.22700
F2553       F  0.18960554  0.27562458  0.56458627    -0.24100
F2554       F  0.18766282  0.24390262  0.55930824    -0.18100
F2555       F  0.12686461  0.33625239  0.52473326    -0.20600
F2556       F  0.12176410  0.30843024  0.54067542    -0.21800
F2557       F  0.12919165  0.30820724  0.50926197    -0.19000
F2558       F  0.22139337  0.32903603  0.55343954    -0.19000
F2559       F  0.22483231  0.31227129  0.52619974    -0.22900
F2560       F  0.21960697  0.29689594  0.55417551    -0.24500
C2561       C  0.00434241  0.46481917  0.69987147    -0.11300
C2562       C  0.01413201  0.45169820  0.71164548     0.11300
C2563       C  0.00727794  0.44822225  0.73053389    -0.03100
C2564       C  0.99144544  0.45894020  0.73730732    -0.05800
C2565       C  0.98220429  0.47272271  0.72580715    -0.16600
C2566       C  0.98835871  0.47529820  0.70658016     0.02300
C2567       C  0.03204614  0.44270150  0.70393323     0.12300
C2568       C  0.01708466  0.43389398  0.74377111     0.62900
H2569       H  0.98679401  0.45742698  0.75209303     0.12300
C2570       C  0.97830031  0.48933847  0.69334930     0.55000
H2571       H  0.00970880  0.46716285  0.68544571     0.08100
C2572       C  0.03153537  0.42632252  0.69192231    -0.05700
C2573       C  0.04892730  0.41919089  0.68444721    -0.06500
C2574       C  0.06679793  0.42838588  0.68756282    -0.16000
C2575       C  0.06712907  0.44525395  0.69911718    -0.01600
C2576       C  0.04973459  0.45188910  0.70734974    -0.09200
C2577       C  0.01260105  0.41702322  0.68610936     0.65100
H2578       H  0.04846877  0.40665443  0.67523037     0.10500
C2579       C  0.08557028  0.45629189  0.70276278     0.63500
H2580       H  0.04967142  0.46473667  0.71615717     0.07900
F2581       F  0.98633838  0.48949542  0.67514330    -0.19600
F2582       F  0.97937315  0.50774068  0.70079540    -0.15800
F2583       F  0.95928603  0.48406470  0.69154804    -0.19300
F2584       F  0.03565036  0.43983497  0.74749147    -0.22700
F2585       F  0.01762372  0.41593164  0.73532417    -0.24100
F2586       F  0.00752149  0.43211356  0.76113948    -0.18100
F2587       F  0.08289652  0.47123001  0.71564662    -0.20600
F2588       F  0.09218960  0.46411161  0.68572645    -0.21800
F2589       F  0.09931259  0.44409560  0.71029932    -0.19000
F2590       F  0.01537705  0.40057638  0.67524125    -0.19000
F2591       F  0.00201373  0.42983043  0.67525227    -0.22900
F2592       F  0.00205846  0.41195660  0.70213743    -0.24500
C2593       C  0.66049503  0.49027344  0.23575048    -0.11300
C2594       C  0.65067389  0.50405130  0.24671572     0.11300
C2595       C  0.66150809  0.51816732  0.25671177    -0.03100
C2596       C  0.68175383  0.51800916  0.25521944    -0.05800
C2597       C  0.69170533  0.50455440  0.24378629    -0.16600
C2598       C  0.68069828  0.49056351  0.23351809     0.02300
C2599       C  0.62916281  0.50264924  0.24845438     0.12300
C2600       C  0.65173436  0.53351759  0.26881453     0.62900
H2601       H  0.69001915  0.52866280  0.26298788     0.12300
C2602       C  0.68990313  0.47583828  0.22025340     0.55000
H2603       H  0.65205662  0.47917688  0.22883897     0.08100
C2604       C  0.61635664  0.50760914  0.23339076    -0.05700
C2605       C  0.59634978  0.50681224  0.23682659    -0.06500
C2606       C  0.58848788  0.50102577  0.25464002    -0.16000
C2607       C  0.60154260  0.49523764  0.26944603    -0.01600
C2608       C  0.62150471  0.49591330  0.26581604    -0.09200
C2609       C  0.62365765  0.51403806  0.21381267     0.65100
H2610       H  0.58663492  0.51082930  0.22539225     0.10500
C2611       C  0.59495330  0.48853361  0.28919867     0.63500
H2612       H  0.63156101  0.49129876  0.27673922     0.07900
F2613       F  0.69797261  0.48510145  0.20461166    -0.19600
F2614       F  0.67668099  0.46271905  0.21323849    -0.15800
F2615       F  0.70384436  0.46562180  0.23003314    -0.19300
F2616       F  0.64258450  0.52522004  0.28436547    -0.22700
F2617       F  0.63838884  0.54322572  0.25777553    -0.24100
F2618       F  0.66472203  0.54684659  0.27587773    -0.18100
F2619       F  0.58377097  0.50256761  0.29774296    -0.20600
F2620       F  0.61022304  0.48494559  0.30141900    -0.21800
F2621       F  0.58465239  0.47160312  0.28748775    -0.19000
F2622       F  0.60876674  0.51793329  0.20121231    -0.19000
F2623       F  0.63474796  0.49980012  0.20556994    -0.22900
F2624       F  0.63456189  0.53053112  0.21581800    -0.24500
C2625       C  0.75021184  0.34243130  0.52424525    -0.11300
C2626       C  0.74837257  0.35181081  0.50643211     0.11300
C2627       C  0.74810490  0.34051489  0.48944908    -0.03100
C2628       C  0.74885703  0.32024080  0.49093639    -0.05800
C2629       C  0.75080105  0.31075667  0.50870727    -0.16600
C2630       C  0.75152291  0.32212264  0.52573909     0.02300
C2631       C  0.74795341  0.37349947  0.50590298     0.12300
C2632       C  0.74779158  0.34988098  0.46974039     0.62900
H2633       H  0.74849638  0.31156205  0.47801627     0.12300
C2634       C  0.75308634  0.31296230  0.54548741     0.55000
H2635       H  0.75079855  0.35126564  0.53705188     0.08100
C2636       C  0.73079813  0.38430957  0.50786050    -0.05700
C2637       C  0.73160884  0.40463283  0.50633876    -0.06500
C2638       C  0.74901052  0.41469864  0.50359630    -0.16000
C2639       C  0.76632996  0.40378353  0.50303098    -0.01600
C2640       C  0.76538121  0.38343963  0.50386715    -0.09200
C2641       C  0.71175033  0.37443772  0.51191511     0.65100
H2642       H  0.71847770  0.41288680  0.50731622     0.10500
C2643       C  0.78590810  0.41335638  0.50242771     0.63500
H2644       H  0.77840521  0.37499263  0.50295727     0.07900
F2645       F  0.75133723  0.32639249  0.56007820    -0.19600
F2646       F  0.77075514  0.30415708  0.54749292    -0.15800
F2647       F  0.73864650  0.29949758  0.54780641    -0.19300
F2648       F  0.76434041  0.36057593  0.46722754    -0.22700
F2649       F  0.73206776  0.36184252  0.46804400    -0.24100
F2650       F  0.74685615  0.33639690  0.45511772    -0.18100
F2651       F  0.80054185  0.40037123  0.50600992    -0.20600
F2652       F  0.78696292  0.42757298  0.51630746    -0.21800
F2653       F  0.78898911  0.42128399  0.48447783    -0.19000
F2654       F  0.69692163  0.38753608  0.51388871    -0.19000
F2655       F  0.71302119  0.36407094  0.52881829    -0.22900
F2656       F  0.70712430  0.36205629  0.49708305    -0.24500
C2657       C  0.84671050  0.48431370  0.75428305    -0.11300
C2658       C  0.85624456  0.50098567  0.74805673     0.11300
C2659       C  0.84520600  0.51692058  0.74181186    -0.03100
C2660       C  0.82496611  0.51573756  0.74242690    -0.05800
C2661       C  0.81532314  0.49914064  0.74881993    -0.16600
C2662       C  0.82643837  0.48302828  0.75478475     0.02300
C2663       C  0.87780696  0.50112798  0.74776577     0.12300
C2664       C  0.85477071  0.53505698  0.73429677     0.62900
H2665       H  0.81642890  0.52785946  0.73774962     0.12300
C2666       C  0.81713976  0.46429240  0.76111914     0.55000
H2667       H  0.85538607  0.47220015  0.75873032     0.08100
C2668       C  0.88893652  0.50414308  0.76456456    -0.05700
C2669       C  0.90920047  0.50386625  0.76316357    -0.06500
C2670       C  0.91874068  0.50065110  0.74557779    -0.16000
C2671       C  0.90748096  0.49841500  0.72868079    -0.01600
C2672       C  0.88724958  0.49821015  0.73018990    -0.09200
C2673       C  0.87941205  0.50736005  0.78394257     0.65100
H2674       H  0.91779921  0.50582469  0.77598758     0.10500
C2675       C  0.91662601  0.49686411  0.70898644     0.63500
H2676       H  0.87853853  0.49581516  0.71751134     0.07900
F2677       F  0.83045749  0.44963558  0.76290660    -0.19600
F2678       F  0.80361454  0.45849754  0.74774448    -0.15800
F2679       F  0.80840421  0.46678179  0.77879512    -0.19300
F2680       F  0.86480469  0.53094028  0.71766278    -0.22700
F2681       F  0.86732688  0.54228879  0.74789337    -0.24100
F2682       F  0.84150551  0.54924111  0.73005228    -0.18100
F2683       F  0.90327478  0.49909448  0.69441681    -0.20600
F2684       F  0.92493306  0.47895602  0.70700770    -0.21800
F2685       F  0.93040334  0.51105362  0.70674534    -0.19000
F2686       F  0.89262781  0.51221852  0.79799980    -0.19000
F2687       F  0.87012688  0.49073479  0.78962821    -0.22900
F2688       F  0.86617525  0.52211050  0.78271294    -0.24500
C2689       C  0.38930908  0.49757427  0.73829848    -0.11300
C2690       C  0.37958953  0.50412299  0.75475019     0.11300
C2691       C  0.39049042  0.50950246  0.77116874    -0.03100
C2692       C  0.41077993  0.50904691  0.77015381    -0.05800
C2693       C  0.42043947  0.50323281  0.75341850    -0.16600
C2694       C  0.40956845  0.49693642  0.73736860     0.02300
C2695       C  0.35800226  0.50472964  0.75438945     0.12300
C2696       C  0.38074522  0.51573636  0.78966983     0.62900
H2697       H  0.41932333  0.51337053  0.78242847     0.12300
C2698       C  0.41938266  0.48883206  0.71963913     0.55000
H2699       H  0.38081233  0.49290634  0.72612011     0.08100
C2700       C  0.34767568  0.51937642  0.74462298    -0.05700
C2701       C  0.32736954  0.51854933  0.74417361    -0.06500
C2702       C  0.31710366  0.50380358  0.75338969    -0.16000
C2703       C  0.32738997  0.48939738  0.76343767    -0.01600
C2704       C  0.34768294  0.48994757  0.76351006    -0.09200
C2705       C  0.35807725  0.53578689  0.73466150     0.65100
H2706       H  0.31929929  0.52941175  0.73650004     0.10500
C2707       C  0.31689592  0.47325118  0.77364728     0.63500
H2708       H  0.35572397  0.47867275  0.77058376     0.07900
F2709       F  0.43022190  0.50293900  0.71079226    -0.19600
F2710       F  0.40626723  0.48194292  0.70636126    -0.15800
F2711       F  0.43123871  0.47378173  0.72491555    -0.19300
F2712       F  0.37012941  0.50067131  0.79709167    -0.22700
F2713       F  0.36869729  0.53110878  0.78612133    -0.24100
F2714       F  0.39391866  0.52131014  0.80350442    -0.18100
F2715       F  0.30652647  0.46265235  0.76041435    -0.20600
F2716       F  0.30448913  0.48079036  0.78720525    -0.21800
F2717       F  0.32942585  0.46098026  0.78300562    -0.19000
F2718       F  0.34542264  0.54953073  0.72785990    -0.19000
F2719       F  0.36844195  0.52880221  0.71922812    -0.22900
F2720       F  0.37048536  0.54469511  0.74738310    -0.24500
C2721       C  0.76083671  0.84521005  0.49614017    -0.11300
C2722       C  0.74545439  0.85616870  0.48908262     0.11300
C2723       C  0.72926080  0.84642424  0.48140073    -0.03100
C2724       C  0.72853358  0.82606986  0.48218430    -0.05800
C2725       C  0.74386473  0.81503792  0.48937776    -0.16600
C2726       C  0.76047632  0.82484543  0.49624381     0.02300
C2727       C  0.74680485  0.87780636  0.48987737     0.12300
C2728       C  0.71299426  0.85751202  0.47203824     0.62900
H2729       H  0.71607297  0.81852932  0.47669345     0.12300
C2730       C  0.77780506  0.81399049  0.50378837     0.55000
H2731       H  0.77331160  0.85284368  0.50147344     0.08100
C2732       C  0.74191108  0.88835445  0.50662059    -0.05700
C2733       C  0.74331039  0.90867985  0.50639603    -0.06500
C2734       C  0.74943387  0.91892079  0.49002741    -0.16000
C2735       C  0.75505482  0.90823210  0.47347089    -0.01600
C2736       C  0.75363248  0.88788308  0.47375284    -0.09200
C2737       C  0.73531755  0.87807238  0.52471656     0.65100
H2738       H  0.73940799  0.91680931  0.51907954     0.10500
C2739       C  0.76315568  0.91807851  0.45574478     0.63500
H2740       H  0.75775919  0.87958557  0.46124995     0.07900
F2741       F  0.79071781  0.82608774  0.51290748    -0.19600
F2742       F  0.78723379  0.80522524  0.48864726    -0.15800
F2743       F  0.77208007  0.80022354  0.51694176    -0.19300
F2744       F  0.72003260  0.86813457  0.45678857    -0.22700
F2745       F  0.70466320  0.86982897  0.48519644    -0.24100
F2746       F  0.69885328  0.84538612  0.46503206    -0.18100
F2747       F  0.77038327  0.90495282  0.44263782    -0.20600
F2748       F  0.77796164  0.93029542  0.46095774    -0.21800
F2749       F  0.74890492  0.92847392  0.44666245    -0.19000
F2750       F  0.73064552  0.89085363  0.53923145    -0.19000
F2751       F  0.74979562  0.86624127  0.53137190    -0.22900
F2752       F  0.71926928  0.86703561  0.52082145    -0.24500
C2753       C  0.51131725  0.73976338  0.38347926    -0.11300
C2754       C  0.49496527  0.74578208  0.37345370     0.11300
C2755       C  0.47852358  0.75143192  0.38406878    -0.03100
C2756       C  0.47922236  0.75117531  0.40444097    -0.05800
C2757       C  0.49572351  0.74531670  0.41464745    -0.16600
C2758       C  0.51219817  0.73971709  0.40378775     0.02300
C2759       C  0.49547978  0.74560554  0.35181739     0.12300
C2760       C  0.46030860  0.75769315  0.37384692     0.62900
H2761       H  0.46670137  0.75546202  0.41259433     0.12300
C2762       C  0.53105093  0.73445835  0.41330527     0.55000
H2763       H  0.52358716  0.73515128  0.37510741     0.08100
C2764       C  0.50401693  0.76054778  0.34096171    -0.05700
C2765       C  0.50337856  0.75966717  0.32065306    -0.06500
C2766       C  0.49529989  0.74395291  0.31056634    -0.16000
C2767       C  0.48801787  0.72820943  0.32174429    -0.01600
C2768       C  0.48805999  0.72959974  0.34207958    -0.09200
C2769       C  0.51415103  0.77719576  0.35084393     0.65100
H2770       H  0.50957367  0.77135643  0.31250106     0.10500
C2771       C  0.48022150  0.70983239  0.31276053     0.63500
H2772       H  0.48230013  0.71802940  0.35075763     0.07900
F2773       F  0.53600262  0.74851106  0.42645818    -0.19600
F2774       F  0.54590658  0.73310830  0.40014418    -0.15800
F2775       F  0.52932971  0.71685508  0.42237986    -0.19300
F2776       F  0.45344551  0.74282976  0.36256747    -0.22700
F2777       F  0.46410456  0.77340065  0.36227736    -0.24100
F2778       F  0.44599505  0.76278338  0.38668092    -0.18100
F2779       F  0.47434844  0.69665169  0.32647756    -0.20600
F2780       F  0.49437372  0.70106123  0.30190858    -0.21800
F2781       F  0.46449260  0.71399302  0.30137197    -0.19000
F2782       F  0.52090369  0.79062320  0.33779748    -0.19000
F2783       F  0.52968313  0.77036960  0.36114695    -0.22900
F2784       F  0.50169709  0.78639904  0.36326805    -0.24500
C2785       C  0.51255565  0.74096896  0.84168115    -0.11300
C2786       C  0.49791516  0.74939481  0.85277321     0.11300
C2787       C  0.48252883  0.75867149  0.84319032    -0.03100
C2788       C  0.48124070  0.75738584  0.82294625    -0.05800
C2789       C  0.49520104  0.74784800  0.81187398    -0.16600
C2790       C  0.51169276  0.74042582  0.82133367     0.02300
C2791       C  0.49909162  0.74857808  0.87437272     0.12300
C2792       C  0.46766464  0.77011933  0.85433214     0.62900
H2793       H  0.46913621  0.76376707  0.81556654     0.12300
C2794       C  0.52869211  0.73279535  0.80999602     0.55000
H2795       H  0.52468044  0.73469779  0.84913003     0.08100
C2796       C  0.49223888  0.73265019  0.88502155    -0.05700
C2797       C  0.49319039  0.73310975  0.90533780    -0.06500
C2798       C  0.50002522  0.74923982  0.91568343    -0.16000
C2799       C  0.50649271  0.76550065  0.90471868    -0.01600
C2800       C  0.50648476  0.76443486  0.88435822    -0.09200
C2801       C  0.48351852  0.71535047  0.87490710     0.65100
H2802       H  0.48817281  0.72073873  0.91329855     0.10500
C2803       C  0.51265285  0.78438294  0.91391842     0.63500
H2804       H  0.51173827  0.77637374  0.87586516     0.07900
F2805       F  0.54463124  0.73012743  0.82156456    -0.19600
F2806       F  0.53366814  0.74574152  0.79571139    -0.15800
F2807       F  0.52406229  0.71531635  0.80177571    -0.19300
F2808       F  0.47653556  0.78512891  0.86388790    -0.22700
F2809       F  0.45855957  0.75847347  0.86759505    -0.24100
F2810       F  0.45382218  0.77787152  0.84236282    -0.18100
F2811       F  0.51655403  0.79843312  0.90035272    -0.20600
F2812       F  0.52915763  0.78173652  0.92463065    -0.21800
F2813       F  0.49804915  0.79128053  0.92549011    -0.19000
F2814       F  0.47766366  0.70135306  0.88778709    -0.19000
F2815       F  0.49683665  0.70722918  0.86262841    -0.22900
F2816       F  0.46766133  0.72098679  0.86438944    -0.24500
C2817       C  0.73005626  0.15489717  0.00052998    -0.11300
C2818       C  0.74697664  0.14465217  0.99680085     0.11300
C2819       C  0.76428030  0.15499744  0.99394208    -0.03100
C2820       C  0.76401556  0.17533288  0.99501339    -0.05800
C2821       C  0.74705470  0.18576119  0.99875302    -0.16600
C2822       C  0.72974247  0.17519181  0.00191365     0.02300
C2823       C  0.74615061  0.12305563  0.99677698     0.12300
C2824       C  0.78288530  0.14459242  0.98932724     0.62900
H2825       H  0.77714675  0.18329914  0.99254403     0.12300
C2826       C  0.71105180  0.18495162  0.00755694     0.55000
H2827       H  0.71699381  0.14669942  0.00264553     0.08100
C2828       C  0.74691612  0.11227239  0.01408577    -0.05700
C2829       C  0.74592587  0.09200977  0.01318434    -0.06500
C2830       C  0.74387573  0.08221587  0.99567253    -0.16000
C2831       C  0.74242916  0.09294149  0.97840302    -0.01600
C2832       C  0.74376606  0.11324873  0.97923178    -0.09200
C2833       C  0.74844556  0.12216126  0.03349931     0.65100
H2834       H  0.74665124  0.08357152  0.02624370     0.10500
C2835       C  0.73860486  0.08293496  0.95936829     0.63500
H2836       H  0.74272893  0.12167606  0.96619285     0.07900
F2837       F  0.69730950  0.17180606  0.01344154    -0.19600
F2838       F  0.70364987  0.19488732  0.99203236    -0.15800
F2839       F  0.71423238  0.19748008  0.02268798    -0.19300
F2840       F  0.78148112  0.13617588  0.97137686    -0.22700
F2841       F  0.78648090  0.13044587  0.00279859    -0.24100
F2842       F  0.79843685  0.15700770  0.98924451    -0.18100
F2843       F  0.73620159  0.09593295  0.94450590    -0.20600
F2844       F  0.72203792  0.07201531  0.96078278    -0.21800
F2845       F  0.75381190  0.07106066  0.95471840    -0.19000
F2846       F  0.74976546  0.10904835  0.04840552    -0.19000
F2847       F  0.73235251  0.13334065  0.03659193    -0.22900
F2848       F  0.76456533  0.13374657  0.03407580    -0.24500
C2849       C  0.16675031  0.99114644  0.77002705    -0.11300
C2850       C  0.15600288  0.00200873  0.75683103     0.11300
C2851       C  0.16593192  0.01431187  0.74389403    -0.03100
C2852       C  0.18628963  0.01455479  0.74399763    -0.05800
C2853       C  0.19703449  0.00370810  0.75722772    -0.16600
C2854       C  0.18707445  0.99190801  0.77059115     0.02300
C2855       C  0.13437528  0.00074332  0.75744047     0.12300
C2856       C  0.15502558  0.02753778  0.73040800     0.62900
H2857       H  0.19403109  0.02359608  0.73396142     0.12300
C2858       C  0.19791052  0.97989609  0.78520200     0.55000
H2859       H  0.15899697  0.98212466  0.78006753     0.08100
C2860       C  0.12386023  0.98630171  0.74750012    -0.05700
C2861       C  0.10350603  0.98631051  0.74849871    -0.06500
C2862       C  0.09337455  0.99987429  0.75953507    -0.16000
C2863       C  0.10392972  0.01390529  0.76991633    -0.01600
C2864       C  0.12422586  0.01413152  0.76864481    -0.09200
C2865       C  0.13414218  0.97065936  0.73628432     0.65100
H2866       H  0.09530119  0.97554347  0.74080607     0.10500
C2867       C  0.09368996  0.02862423  0.78226842     0.63500
H2868       H  0.13241419  0.02484116  0.77642951     0.07900
F2869       F  0.18574146  0.96811333  0.79564053    -0.19600
F2870       F  0.20734491  0.99183190  0.79799898    -0.15800
F2871       F  0.21116778  0.96835382  0.77593155    -0.19300
F2872       F  0.14459717  0.04067919  0.74104349    -0.22700
F2873       F  0.14257507  0.01703334  0.71903947    -0.24100
F2874       F  0.16725914  0.03765101  0.71840224    -0.18100
F2875       F  0.10644490  0.04100740  0.79123403    -0.20600
F2876       F  0.08315185  0.01934014  0.79633440    -0.21800
F2877       F  0.08145875  0.03944605  0.77097329    -0.19000
F2878       F  0.12137202  0.95866183  0.72683366    -0.19000
F2879       F  0.14492062  0.95959325  0.74875679    -0.22900
F2880       F  0.14618591  0.97869923  0.72269040    -0.24500
C2881       C  0.01596459  0.75544791  0.10754599    -0.11300
C2882       C  0.99939906  0.75069130  0.11807862     0.11300
C2883       C  0.98240706  0.74587188  0.10788330    -0.03100
C2884       C  0.98286676  0.74500908  0.08754816    -0.05800
C2885       C  0.99968679  0.74883445  0.07700580    -0.16600
C2886       C  0.01645238  0.75464526  0.08719782     0.02300
C2887       C  0.00030043  0.75067420  0.13975755     0.12300
C2888       C  0.96380967  0.74171357  0.11848942     0.62900
H2889       H  0.97004219  0.74106902  0.07968249     0.12300
C2890       C  0.03475641  0.76035980  0.07672749     0.55000
H2891       H  0.02871367  0.75950024  0.11548295     0.08100
C2892       C  0.00756207  0.73482601  0.15031737    -0.05700
C2893       C  0.00745618  0.73549566  0.17069833    -0.06500
C2894       C  0.00060614  0.75155821  0.18098901    -0.16000
C2895       C  0.99333895  0.76744674  0.17028823    -0.01600
C2896       C  0.99352892  0.76674389  0.14991325    -0.09200
C2897       C  0.01536012  0.71723438  0.13999433     0.65100
H2898       H  0.01293612  0.72341573  0.17882097     0.10500
C2899       C  0.98480487  0.78493063  0.18013888     0.63500
H2900       H  0.98824466  0.77881382  0.14164269     0.07900
F2901       F  0.04776923  0.76920089  0.08889968    -0.19600
F2902       F  0.03058815  0.77315242  0.06206950    -0.15800
F2903       F  0.04346782  0.74419348  0.06913682    -0.19300
F2904       F  0.95791100  0.75800954  0.12820424    -0.22700
F2905       F  0.96649257  0.72699002  0.13154841    -0.24100
F2906       F  0.94925147  0.73629291  0.10606283    -0.18100
F2907       F  0.97515512  0.79666209  0.16729927    -0.20600
F2908       F  0.99925260  0.79565842  0.18844253    -0.21800
F2909       F  0.97186772  0.77927996  0.19413014    -0.19000
F2910       F  0.02109523  0.70309699  0.15274703    -0.19000
F2911       F  0.03106764  0.72234210  0.12896302    -0.22900
F2912       F  0.00140241  0.70950050  0.12815473    -0.24500
C2913       C  0.23994968  0.66070474  0.48110699    -0.11300
C2914       C  0.24481857  0.65050448  0.49785383     0.11300
C2915       C  0.25001690  0.66112260  0.51445307    -0.03100
C2916       C  0.24964376  0.68147553  0.51388688    -0.05800
C2917       C  0.24470725  0.69195908  0.49720223    -0.16600
C2918       C  0.23987660  0.68116898  0.48034973     0.02300
C2919       C  0.24488182  0.62872341  0.49766306     0.12300
C2920       C  0.25626586  0.65091148  0.53271725     0.62900
H2921       H  0.25342508  0.68941410  0.52671700     0.12300
C2922       C  0.23533183  0.69089023  0.46134559     0.55000
H2923       H  0.23633196  0.65237434  0.46846720     0.08100
C2924       C  0.22811805  0.61759755  0.50086462    -0.05700
C2925       C  0.22966892  0.59733430  0.50272530    -0.06500
C2926       C  0.24732375  0.58751476  0.50089629    -0.16000
C2927       C  0.26401710  0.59878090  0.49646683    -0.01600
C2928       C  0.26236038  0.61907586  0.49504292    -0.09200
C2929       C  0.20858981  0.62716564  0.50205990     0.65100
H2930       H  0.21687170  0.58894577  0.50548901     0.10500
C2931       C  0.28377073  0.58987845  0.49364306     0.63500
H2932       H  0.27490808  0.62779954  0.49213756     0.07900
F2933       F  0.21848373  0.70125369  0.46289532    -0.19600
F2934       F  0.23293805  0.67770083  0.44660929    -0.15800
F2935       F  0.25023701  0.70302965  0.45626406    -0.19300
F2936       F  0.27303789  0.64086145  0.52932013    -0.22700
F2937       F  0.24217351  0.63820508  0.53862237    -0.24100
F2938       F  0.25966463  0.66367796  0.54760833    -0.18100
F2939       F  0.28371754  0.57824071  0.47750890    -0.20600
F2940       F  0.28876092  0.57925439  0.50968691    -0.21800
F2941       F  0.29788668  0.60365285  0.49094757    -0.19000
F2942       F  0.19415355  0.61408266  0.50611157    -0.19000
F2943       F  0.20440512  0.63579497  0.48465646    -0.22900
F2944       F  0.20859027  0.64099102  0.51634286    -0.24500
C2945       C  0.26014284  0.11734657  0.51757840    -0.11300
C2946       C  0.25565321  0.12776183  0.50090360     0.11300
C2947       C  0.25152212  0.11737258  0.48382570    -0.03100
C2948       C  0.25057795  0.09702842  0.48447297    -0.05800
C2949       C  0.25442847  0.08643410  0.50133090    -0.16600
C2950       C  0.25983638  0.09695650  0.51818857     0.02300
C2951       C  0.25551156  0.14949803  0.50188067     0.12300
C2952       C  0.24835785  0.12769645  0.46486510     0.62900
H2953       H  0.24706623  0.08915787  0.47151490     0.12300
C2954       C  0.26510822  0.08709474  0.53696734     0.55000
H2955       H  0.26395512  0.12550769  0.53027674     0.08100
C2956       C  0.24031494  0.15993540  0.51056895    -0.05700
C2957       C  0.24132715  0.18027103  0.51137111    -0.06500
C2958       C  0.25682356  0.19084351  0.50358175    -0.16000
C2959       C  0.27184739  0.18024881  0.49444186    -0.01600
C2960       C  0.27106725  0.15984745  0.49425370    -0.09200
C2961       C  0.22296405  0.14961952  0.51890970     0.65100
H2962       H  0.22984640  0.18810702  0.51832321     0.10500
C2963       C  0.28843156  0.19012748  0.48427233     0.63500
H2964       H  0.28274400  0.15168082  0.48803818     0.07900
F2965       F  0.25027907  0.07522451  0.54283789    -0.19600
F2966       F  0.26852193  0.10016881  0.55160051    -0.15800
F2967       F  0.28170344  0.07646845  0.53452968    -0.19300
F2968       F  0.26504837  0.13699416  0.45944333    -0.22700
F2969       F  0.23377884  0.14103218  0.46672854    -0.24100
F2970       F  0.24340806  0.11508944  0.45026432    -0.18100
F2971       F  0.30023512  0.19893586  0.49761091    -0.20600
F2972       F  0.28146644  0.20364372  0.47146908    -0.21800
F2973       F  0.29948609  0.17723335  0.47390366    -0.19000
F2974       F  0.20898567  0.16237774  0.52501995    -0.19000
F2975       F  0.22845495  0.13865336  0.53452669    -0.22900
F2976       F  0.21486540  0.13777281  0.50514105    -0.24500
C2977       C  0.99924752  0.74208981  0.64795501    -0.11300
C2978       C  0.00155507  0.75995731  0.63887771     0.11300
C2979       C  0.00337428  0.77668482  0.65040919    -0.03100
C2980       C  0.00321857  0.77483429  0.67067034    -0.05800
C2981       C  0.00123461  0.75688636  0.67986042    -0.16600
C2982       C  0.99913705  0.74014912  0.66819982     0.02300
C2983       C  0.00155536  0.76060185  0.61725389     0.12300
C2984       C  0.00511010  0.79646754  0.64133974     0.62900
H2985       H  0.00460253  0.78754449  0.67956126     0.12300
C2986       C  0.99615039  0.72030866  0.67686581     0.55000
H2987       H  0.99755797  0.72953612  0.63889217     0.08100
C2988       C  0.01799743  0.75590352  0.60617162    -0.05700
C2989       C  0.01677531  0.75636092  0.58583968    -0.06500
C2990       C  0.99956110  0.76082877  0.57619409    -0.16000
C2991       C  0.98313423  0.76563154  0.58739420    -0.01600
C2992       C  0.98445719  0.76532892  0.60769708    -0.09200
C2993       C  0.03669186  0.75019768  0.61585986     0.65100
H2994       H  0.02923412  0.75275060  0.57726036     0.10500
C2995       C  0.96436669  0.77165464  0.57807183     0.63500
H2996       H  0.97198846  0.76863661  0.61638577     0.07900
F2997       F  0.01265246  0.71444141  0.68619309    -0.19600
F2998       F  0.99194607  0.70666582  0.66298841    -0.15800
F2999       F  0.98100451  0.72074705  0.68973047    -0.19300
F3000       F  0.98826757  0.80090277  0.63183197    -0.22700
F3001       F  0.02013678  0.79679803  0.62836421    -0.24100
F3002       F  0.00846527  0.81061270  0.65495163    -0.18100
F3003       F  0.95601548  0.75609125  0.56895477    -0.20600
F3004       F  0.96774567  0.78611035  0.56483369    -0.21800
F3005       F  0.95136560  0.77856054  0.59144755    -0.19000
F3006       F  0.05121123  0.74706696  0.60264236    -0.19000
F3007       F  0.03406832  0.73342629  0.62619167    -0.22900
F3008       F  0.04262903  0.76457460  0.62824392    -0.24500
C3009       C  0.20339950  0.96237616  0.44672776    -0.11300
C3010       C  0.19544754  0.98067919  0.44351988     0.11300
C3011       C  0.17960017  0.98253217  0.43094378    -0.03100
C3012       C  0.17196776  0.96585531  0.42231000    -0.05800
C3013       C  0.17961002  0.94743555  0.42578936    -0.16600
C3014       C  0.19565284  0.94562444  0.43819641     0.02300
C3015       C  0.20385577  0.99752754  0.45391068     0.12300
C3016       C  0.17100827  0.00207936  0.42640000     0.62900
H3017       H  0.15982305  0.96709223  0.41266565     0.12300
C3018       C  0.20478856  0.92622433  0.44210688     0.55000
H3019       H  0.21563826  0.96131620  0.45626873     0.08100
C3020       C  0.19907467  0.00155643  0.47329824    -0.05700
C3021       C  0.20881525  0.01651118  0.48288363    -0.06500
C3022       C  0.22350502  0.02712641  0.47398749    -0.16000
C3023       C  0.22769113  0.02370791  0.45437190    -0.01600
C3024       C  0.21765371  0.00898052  0.44456370    -0.09200
C3025       C  0.18447352  0.98945025  0.48415301     0.65100
H3026       H  0.20601116  0.01913933  0.49797620     0.10500
C3027       C  0.24335136  0.03496621  0.44425011     0.63500
H3028       H  0.22112048  0.00569243  0.42974434     0.07900
F3029       F  0.22153694  0.92795903  0.45268138    -0.19600
F3030       F  0.20925570  0.91726532  0.42491704    -0.15800
F3031       F  0.19219212  0.91481279  0.45240625    -0.19300
F3032       F  0.18440121  0.01316433  0.41679390    -0.22700
F3033       F  0.16574558  0.01138934  0.44314467    -0.24100
F3034       F  0.15484945  0.00055003  0.41490395    -0.18100
F3035       F  0.26084079  0.03153700  0.45301337    -0.20600
F3036       F  0.23927850  0.05439781  0.44524080    -0.21800
F3037       F  0.24487865  0.02990927  0.42505820    -0.19000
F3038       F  0.18117758  0.99649658  0.50247493    -0.19000
F3039       F  0.19109587  0.97080590  0.48585240    -0.22900
F3040       F  0.16715773  0.98927044  0.47446522    -0.24500
C3041       C  0.04234937  0.80949104  0.44822806    -0.11300
C3042       C  0.05471628  0.80552598  0.46365139     0.11300
C3043       C  0.07446141  0.80966882  0.46187586    -0.03100
C3044       C  0.08096292  0.81897762  0.44517914    -0.05800
C3045       C  0.06859303  0.82390465  0.42982956    -0.16600
C3046       C  0.04886542  0.81848846  0.43119772     0.02300
C3047       C  0.04658627  0.79665879  0.48137517     0.12300
C3048       C  0.08865723  0.80419982  0.47754936     0.62900
H3049       H  0.09604669  0.82253601  0.44416995     0.12300
C3050       C  0.03461646  0.82191354  0.41501305     0.55000
H3051       H  0.02737400  0.80557695  0.44979736     0.08100
C3052       C  0.03701762  0.80767746  0.49560179    -0.05700
C3053       C  0.02824117  0.79809049  0.51119152    -0.06500
C3054       C  0.02857064  0.77797628  0.51266629    -0.16000
C3055       C  0.03924352  0.76713787  0.49909559    -0.01600
C3056       C  0.04797048  0.77669180  0.48356770    -0.09200
C3057       C  0.03521205  0.82934439  0.49371919     0.65100
H3058       H  0.01972212  0.80610612  0.52146116     0.10500
C3059       C  0.04068620  0.74540556  0.50048377     0.63500
H3060       H  0.05529299  0.76850805  0.47252903     0.07900
F3061       F  0.03222248  0.84143542  0.41212254    -0.19600
F3062       F  0.01675040  0.81413649  0.41905616    -0.15800
F3063       F  0.04119409  0.81337506  0.39829965    -0.19300
F3064       F  0.08902682  0.78444220  0.47962154    -0.22700
F3065       F  0.08333241  0.81245430  0.49481814    -0.24100
F3066       F  0.10712609  0.81024681  0.47330885    -0.18100
F3067       F  0.02364207  0.73706989  0.49461037    -0.20600
F3068       F  0.04448501  0.74004784  0.51925227    -0.21800
F3069       F  0.05531542  0.73833459  0.48900898    -0.19000
F3070       F  0.02695744  0.83748908  0.50988571    -0.19000
F3071       F  0.02385686  0.83374012  0.47803241    -0.22900
F3072       F  0.05312844  0.83754866  0.49123376    -0.24500
C3073       C  0.02620268  0.83482084  0.29590499    -0.11300
C3074       C  0.03539077  0.81737492  0.29180118     0.11300
C3075       C  0.05137814  0.81161555  0.30301042    -0.03100
C3076       C  0.05736710  0.82345652  0.31832510    -0.05800
C3077       C  0.04848813  0.84115005  0.32209920    -0.16600
C3078       C  0.03244910  0.84686965  0.31091843     0.02300
C3079       C  0.02737241  0.80512542  0.27614987     0.12300
C3080       C  0.06270894  0.79361895  0.29817951     0.62900
H3081       H  0.06993817  0.81963175  0.32664695     0.12300
C3082       C  0.02192094  0.86558165  0.31478198     0.55000
H3083       H  0.01417284  0.83904660  0.28700155     0.08100
C3084       C  0.01072078  0.79389672  0.27909227    -0.05700
C3085       C  0.00408910  0.78223402  0.26397839    -0.06500
C3086       C  0.01371203  0.78096509  0.24614076    -0.16000
C3087       C  0.03008907  0.79275676  0.24305485    -0.01600
C3088       C  0.03645768  0.80486506  0.25812017    -0.09200
C3089       C  0.00028540  0.79386904  0.29833200     0.65100
H3090       H  0.99143998  0.77346166  0.26625250     0.10500
C3091       C  0.04113891  0.79231992  0.22430394     0.63500
H3092       H  0.04885044  0.81404900  0.25608614     0.07900
F3093       F  0.01774590  0.86710773  0.33416172    -0.19600
F3094       F  0.00477704  0.86653754  0.30473163    -0.15800
F3095       F  0.03317560  0.88099598  0.30925710    -0.19300
F3096       F  0.07151881  0.79592143  0.28051920    -0.22700
F3097       F  0.05065628  0.77782977  0.29746505    -0.24100
F3098       F  0.07685337  0.78996127  0.31167670    -0.18100
F3099       F  0.05752685  0.80357782  0.22508394    -0.20600
F3100       F  0.02968633  0.79932299  0.20973896    -0.21800
F3101       F  0.04665998  0.77370547  0.22005273    -0.19000
F3102       F  0.98516272  0.78094031  0.29859725    -0.19000
F3103       F  0.99292149  0.81192666  0.30208092    -0.22900
F3104       F  0.01285499  0.78885320  0.31288050    -0.24500
C3105       C  0.22110222  0.79182564  0.46390521    -0.11300
C3106       C  0.20152029  0.78870760  0.46095486     0.11300
C3107       C  0.19387703  0.77003103  0.46384246    -0.03100
C3108       C  0.20561715  0.75572260  0.47229121    -0.05800
C3109       C  0.22504849  0.75923743  0.47651107    -0.16600
C3110       C  0.23323332  0.77728723  0.47092186     0.02300
C3111       C  0.18995487  0.80503910  0.45324479     0.12300
C3112       C  0.17373775  0.76512846  0.45717080     0.62900
H3113       H  0.19964258  0.74178755  0.47583811     0.12300
C3114       C  0.25480238  0.78112705  0.47112084     0.55000
H3115       H  0.22687278  0.80589719  0.46049769     0.08100
C3116       C  0.18113858  0.81897308  0.46528362    -0.05700
C3117       C  0.17080235  0.83424518  0.45672612    -0.06500
C3118       C  0.16942834  0.83606199  0.43667261    -0.16000
C3119       C  0.17901068  0.82256363  0.42474010    -0.01600
C3120       C  0.18914867  0.80731315  0.43328070    -0.09200
C3121       C  0.18239159  0.81748480  0.48702880     0.65100
H3122       H  0.16315516  0.84447931  0.46560839     0.10500
C3123       C  0.17885645  0.82447626  0.40298404     0.63500
H3124       H  0.19659251  0.79691878  0.42440863     0.07900
F3125       F  0.26138401  0.78403465  0.48963036    -0.19600
F3126       F  0.25948767  0.79739461  0.46062257    -0.15800
F3127       F  0.26434802  0.76575944  0.46290178    -0.19300
F3128       F  0.17292746  0.76655701  0.43735745    -0.22700
F3129       F  0.16055363  0.77766881  0.46509150    -0.24100
F3130       F  0.16855041  0.74660862  0.46227387    -0.18100
F3131       F  0.18885424  0.80972847  0.39413543    -0.20600
F3132       F  0.18735607  0.84171097  0.39787513    -0.21800
F3133       F  0.16026217  0.82400998  0.39609615    -0.19000
F3134       F  0.17356266  0.83287747  0.49603055    -0.19000
F3135       F  0.20140298  0.81719119  0.49272679    -0.22900
F3136       F  0.17353271  0.80079576  0.49317356    -0.24500
C3137       C  0.32454365  0.96973663  0.69825719    -0.11300
C3138       C  0.30607603  0.96626769  0.69088788     0.11300
C3139       C  0.30401926  0.95680283  0.67305937    -0.03100
C3140       C  0.32058450  0.95028835  0.66359564    -0.05800
C3141       C  0.33919757  0.95287034  0.67124555    -0.16600
C3142       C  0.34124774  0.96310827  0.68882060     0.02300
C3143       C  0.28911100  0.97294336  0.70205184     0.12300
C3144       C  0.28438123  0.95356443  0.66405858     0.62900
H3145       H  0.31894027  0.94266783  0.65012603     0.12300
C3146       C  0.36075653  0.96711826  0.69768123     0.55000
H3147       H  0.32570905  0.97738728  0.71177644     0.08100
C3148       C  0.28167731  0.96236506  0.71779732    -0.05700
C3149       C  0.26604405  0.96999230  0.72810692    -0.06500
C3150       C  0.25824052  0.98806884  0.72370497    -0.16000
C3151       C  0.26564822  0.99856807  0.70794101    -0.01600
C3152       C  0.28077969  0.99061629  0.69710417    -0.09200
C3153       C  0.29075385  0.94357235  0.72423955     0.65100
H3154       H  0.26069851  0.96255480  0.74071034     0.10500
C3155       C  0.25827186  0.01850993  0.70329879     0.63500
H3156       H  0.28686406  0.99854790  0.68516416     0.07900
F3157       F  0.35952645  0.98009391  0.71273657    -0.19600
F3158       F  0.37298119  0.97485335  0.68404023    -0.15800
F3159       F  0.36844993  0.95022001  0.70474558    -0.19300
F3160       F  0.27622737  0.97106313  0.65941256    -0.22700
F3161       F  0.27250553  0.94401147  0.67680198    -0.24100
F3162       F  0.28547887  0.94267508  0.64742274    -0.18100
F3163       F  0.26222314  0.03082020  0.71841293    -0.20600
F3164       F  0.23865156  0.01779457  0.70038289    -0.21800
F3165       F  0.26674767  0.02591516  0.68687502    -0.19000
F3166       F  0.28102627  0.93549706  0.73961682    -0.19000
F3167       F  0.30950046  0.94678212  0.72992549    -0.22900
F3168       F  0.29061978  0.93045182  0.70931584    -0.24500
C3169       C  0.30485075  0.95821920  0.54567277    -0.11300
C3170       C  0.29738825  0.97388535  0.55602744     0.11300
C3171       C  0.29822911  0.97372784  0.57635263    -0.03100
C3172       C  0.30804523  0.95867310  0.58554791    -0.05800
C3173       C  0.31638288  0.94338371  0.57524747    -0.16600
C3174       C  0.31421231  0.94276323  0.55496170     0.02300
C3175       C  0.28819575  0.99004412  0.54535002     0.12300
C3176       C  0.28863332  0.98929714  0.58831733     0.62900
H3177       H  0.30935765  0.95875797  0.60106878     0.12300
C3178       C  0.32212645  0.92622184  0.54313959     0.55000
H3179       H  0.30340910  0.95832032  0.53017044     0.08100
C3180       C  0.29894573  0.00503292  0.53658743    -0.05700
C3181       C  0.28907027  0.01983022  0.52677693    -0.06500
C3182       C  0.26894205  0.02017790  0.52591935    -0.16000
C3183       C  0.25830763  0.00592222  0.53594757    -0.01600
C3184       C  0.26813546  0.99068908  0.54477531    -0.09200
C3185       C  0.32071223  0.00523086  0.53744489     0.65100
H3186       H  0.29699620  0.03081002  0.51908871     0.10500
C3187       C  0.23658014  0.00657815  0.53754378     0.63500
H3188       H  0.26009996  0.97915911  0.55150689     0.07900
F3189       F  0.34176590  0.92484720  0.54576985    -0.19600
F3190       F  0.31866029  0.92863631  0.52369789    -0.15800
F3191       F  0.31346540  0.90922178  0.54875902    -0.19300
F3192       F  0.26894335  0.98811323  0.58615080    -0.22700
F3193       F  0.29479245  0.00727871  0.58248770    -0.24100
F3194       F  0.29272570  0.98740128  0.60769836    -0.18100
F3195       F  0.22844169  0.99790509  0.52163004    -0.20600
F3196       F  0.23020740  0.02537329  0.53889751    -0.21800
F3197       F  0.23034594  0.99698215  0.55383571    -0.19000
F3198       F  0.32830120  0.02164823  0.52912218    -0.19000
F3199       F  0.32794850  0.98945952  0.52777266    -0.22900
F3200       F  0.32672190  0.00461389  0.55637928    -0.24500
C3201       C  0.44959661  0.79660008  0.54294040    -0.11300
C3202       C  0.44886073  0.80547409  0.52475562     0.11300
C3203       C  0.43889335  0.82305839  0.52269996    -0.03100
C3204       C  0.42921394  0.83065642  0.53873945    -0.05800
C3205       C  0.42967902  0.82173915  0.55693009    -0.16600
C3206       C  0.44064517  0.80478099  0.55927357     0.02300
C3207       C  0.45830994  0.79588900  0.50801008     0.12300
C3208       C  0.43868212  0.83391196  0.50371359     0.62900
H3209       H  0.42109856  0.84383949  0.53716904     0.12300
C3210       C  0.44268029  0.79531201  0.57877459     0.55000
H3211       H  0.45728425  0.78314081  0.54422409     0.08100
C3212       C  0.47849246  0.79598010  0.50548896    -0.05700
C3213       C  0.48634841  0.78605624  0.48971642    -0.06500
C3214       C  0.47484504  0.77581618  0.47663190    -0.16000
C3215       C  0.45466481  0.77627562  0.47871181    -0.01600
C3216       C  0.44670349  0.78630096  0.49447491    -0.09200
C3217       C  0.49180158  0.80590459  0.51969632     0.65100
H3218       H  0.50179307  0.78510952  0.48815691     0.10500
C3219       C  0.44174849  0.76566239  0.46472365     0.63500
H3220       H  0.43131567  0.78633636  0.49666402     0.07900
F3221       F  0.45217965  0.80764496  0.59115530    -0.19600
F3222       F  0.45309473  0.77840671  0.57773971    -0.15800
F3223       F  0.42473549  0.79107571  0.58617053    -0.19300
F3224       F  0.42921395  0.82330155  0.48984338    -0.22700
F3225       F  0.45729146  0.83733072  0.49768879    -0.24100
F3226       F  0.42950076  0.85148568  0.50531631    -0.18100
F3227       F  0.42253974  0.76766587  0.46942865    -0.20600
F3228       F  0.44610785  0.74626444  0.46474543    -0.21800
F3229       F  0.44446230  0.77294850  0.44642723    -0.19000
F3230       F  0.51073151  0.80548093  0.51361536    -0.19000
F3231       F  0.49086404  0.79681789  0.53733122    -0.22900
F3232       F  0.48653159  0.82492930  0.52187090    -0.24500
C3233       C  0.46206297  0.83300807  0.70187039    -0.11300
C3234       C  0.46345152  0.81304252  0.70052074     0.11300
C3235       C  0.45968205  0.80392482  0.68272526    -0.03100
C3236       C  0.45432619  0.81524352  0.66679235    -0.05800
C3237       C  0.45198322  0.83532074  0.66813776    -0.16600
C3238       C  0.45634271  0.84447501  0.68616846     0.02300
C3239       C  0.46864724  0.80201357  0.71814132     0.12300
C3240       C  0.46048516  0.78219800  0.68079022     0.62900
H3241       H  0.45104347  0.80822386  0.65330066     0.12300
C3242       C  0.45450365  0.86605665  0.68959699     0.55000
H3243       H  0.46498384  0.83947560  0.71572759     0.08100
C3244       C  0.48789353  0.80029268  0.72452770    -0.05700
C3245       C  0.49190488  0.78793975  0.74006440    -0.06500
C3246       C  0.47725754  0.77800593  0.74973804    -0.16000
C3247       C  0.45790439  0.78101228  0.74437273    -0.01600
C3248       C  0.45394254  0.79279113  0.72842621    -0.09200
C3249       C  0.50409523  0.81136831  0.71496595     0.65100
H3250       H  0.50662758  0.78537753  0.74436744     0.10500
C3251       C  0.44111150  0.77142317  0.75445077     0.63500
H3252       H  0.43920870  0.79458737  0.72374395     0.07900
F3253       F  0.46574917  0.87602761  0.67658489    -0.19600
F3254       F  0.46052226  0.87136626  0.70783364    -0.15800
F3255       F  0.43550674  0.87156294  0.68784883    -0.19300
F3256       F  0.44555035  0.77408499  0.69107429    -0.22700
F3257       F  0.47772535  0.77530636  0.68781463    -0.24100
F3258       F  0.45883531  0.77637787  0.66182624    -0.18100
F3259       F  0.42697487  0.78491801  0.75801521    -0.20600
F3260       F  0.44616151  0.76334877  0.77188995    -0.21800
F3261       F  0.43366901  0.75718754  0.74273737    -0.19000
F3262       F  0.52191997  0.80535069  0.72137670    -0.19000
F3263       F  0.50222509  0.83070398  0.71918116    -0.22900
F3264       F  0.50355926  0.80889830  0.69524613    -0.24500
C3265       C  0.30241926  0.77006008  0.52728954    -0.11300
C3266       C  0.29466510  0.78290290  0.54081737     0.11300
C3267       C  0.27569096  0.77986225  0.54759137    -0.03100
C3268       C  0.26496422  0.76431959  0.54014840    -0.05800
C3269       C  0.27243822  0.75197392  0.52599982    -0.16600
C3270       C  0.29158362  0.75464878  0.51971712     0.02300
C3271       C  0.30644362  0.79981372  0.54711381     0.12300
C3272       C  0.26623271  0.79380079  0.56149571     0.62900
H3273       H  0.25001553  0.76267130  0.54414327     0.12300
C3274       C  0.29999278  0.74199151  0.50407768     0.55000
H3275       H  0.31679175  0.77276658  0.52200998     0.08100
C3276       C  0.32188257  0.79792930  0.56021535    -0.05700
C3277       C  0.33186940  0.81455868  0.56602425    -0.06500
C3278       C  0.32666544  0.83307849  0.55977232    -0.16000
C3279       C  0.31114397  0.83499588  0.54668213    -0.01600
C3280       C  0.30164706  0.81820132  0.54019755    -0.09200
C3281       C  0.32744736  0.77852931  0.56855279     0.65100
H3282       H  0.34369148  0.81324583  0.57604790     0.10500
C3283       C  0.30455007  0.85451985  0.53958335     0.63500
H3284       H  0.29000722  0.81931139  0.52994678     0.07900
F3285       F  0.31891547  0.74664804  0.50016858    -0.19600
F3286       F  0.28955315  0.74408521  0.48729990    -0.15800
F3287       F  0.29931534  0.72297238  0.50983101    -0.19300
F3288       F  0.26195771  0.81073958  0.55203437    -0.22700
F3289       F  0.27834358  0.79774582  0.57675587    -0.24100
F3290       F  0.24932424  0.78640741  0.56890885    -0.18100
F3291       F  0.29099811  0.85290652  0.52509571    -0.20600
F3292       F  0.31998104  0.86478260  0.53240478    -0.21800
F3293       F  0.29634797  0.86460574  0.55461235    -0.19000
F3294       F  0.34224258  0.78011030  0.58175931    -0.19000
F3295       F  0.33349828  0.76634329  0.55409020    -0.22900
F3296       F  0.31181938  0.77045904  0.57779208    -0.24500
C3297       C  0.01707544  0.23460044  0.34371689    -0.11300
C3298       C  0.00215952  0.24315678  0.35420251     0.11300
C3299       C  0.98696800  0.25210663  0.34407342    -0.03100
C3300       C  0.98691242  0.25157503  0.32374193    -0.05800
C3301       C  0.00160467  0.24260173  0.31301649    -0.16600
C3302       C  0.01720586  0.23415413  0.32335066     0.02300
C3303       C  0.00330623  0.24335746  0.37579117     0.12300
C3304       C  0.97090047  0.26228935  0.35477794     0.62900
H3305       H  0.97513873  0.25816805  0.31604201     0.12300
C3306       C  0.03421556  0.22490513  0.31327597     0.55000
H3307       H  0.02871614  0.22815743  0.35176084     0.08100
C3308       C  0.99688547  0.22784154  0.38727050    -0.05700
C3309       C  0.99758126  0.22958458  0.40751689    -0.06500
C3310       C  0.00516302  0.24598100  0.41691153    -0.16000
C3311       C  0.01260247  0.26112755  0.40511690    -0.01600
C3312       C  0.01132766  0.25947634  0.38485185    -0.09200
C3313       C  0.98978691  0.20928760  0.37814101     0.65100
H3314       H  0.99240647  0.21775838  0.41618206     0.10500
C3315       C  0.02185844  0.27910573  0.41341653     0.63500
H3316       H  0.01662210  0.27089727  0.37569917     0.07900
F3317       F  0.04906205  0.22100666  0.32592537    -0.19600
F3318       F  0.04137156  0.23708753  0.29928002    -0.15800
F3319       F  0.02857640  0.20770847  0.30502672    -0.19300
F3320       F  0.97835590  0.27730510  0.36546354    -0.22700
F3321       F  0.96174605  0.24957302  0.36699297    -0.24100
F3322       F  0.95730033  0.26976866  0.34235874    -0.18100
F3323       F  0.02741917  0.29191879  0.39922881    -0.20600
F3324       F  0.03815981  0.27416244  0.42361531    -0.21800
F3325       F  0.00900099  0.28851566  0.42528553    -0.19000
F3326       F  0.98362107  0.19615092  0.39176884    -0.19000
F3327       F  0.00452200  0.20092287  0.36779207    -0.22900
F3328       F  0.97461872  0.21298180  0.36589194    -0.24500
C3329       C  0.01431360  0.19607987  0.21797955    -0.11300
C3330       C  0.03413455  0.19322589  0.21897377     0.11300
C3331       C  0.04460527  0.20066609  0.23480600    -0.03100
C3332       C  0.03463609  0.21085515  0.24927367    -0.05800
C3333       C  0.01479552  0.21420173  0.24794717    -0.16600
C3334       C  0.00435023  0.20620771  0.23226980     0.02300
C3335       C  0.04326210  0.18221303  0.20308470     0.12300
C3336       C  0.06625103  0.19845935  0.23596168     0.62900
H3337       H  0.04244974  0.21730926  0.26109814     0.12300
C3338       C  0.98284118  0.20893243  0.22982231     0.55000
H3339       H  0.00665120  0.19052756  0.20559310     0.08100
C3340       C  0.04230589  0.16192947  0.20240939    -0.05700
C3341       C  0.05072198  0.15234928  0.18675747    -0.06500
C3342       C  0.05984156  0.16230192  0.17163623    -0.16000
C3343       C  0.06030225  0.18270976  0.17208384    -0.01600
C3344       C  0.05183547  0.19231594  0.18784584    -0.09200
C3345       C  0.03216822  0.15047012  0.21803966     0.65100
H3346       H  0.05017378  0.13679215  0.18620124     0.10500
C3347       C  0.07023932  0.19429078  0.15648713     0.63500
H3348       H  0.05189562  0.20787660  0.18849220     0.07900
F3349       F  0.97502975  0.19461816  0.21838233    -0.19600
F3350       F  0.97932767  0.22645100  0.22111805    -0.15800
F3351       F  0.97359726  0.20824455  0.24741300    -0.19300
F3352       F  0.07474978  0.20774579  0.22058431    -0.22700
F3353       F  0.07115242  0.17921437  0.23544135    -0.24100
F3354       F  0.07360427  0.20629034  0.25272185    -0.18100
F3355       F  0.06983309  0.21381725  0.16031930    -0.20600
F3356       F  0.06116862  0.19133611  0.13904974    -0.21800
F3357       F  0.08925552  0.18872383  0.15510224    -0.19000
F3358       F  0.03463741  0.13086122  0.21569216    -0.19000
F3359       F  0.01270204  0.15427228  0.21754115    -0.22900
F3360       F  0.03928185  0.15542901  0.23592441    -0.24500
C3361       C  0.01281587  0.23169822  0.88271785    -0.11300
C3362       C  0.00174942  0.24501653  0.87257460     0.11300
C3363       C  0.99057989  0.25843521  0.88296309    -0.03100
C3364       C  0.99134770  0.25839309  0.90329554    -0.05800
C3365       C  0.00297485  0.24544675  0.91380518    -0.16600
C3366       C  0.01403322  0.23173493  0.90301477     0.02300
C3367       C  0.00177041  0.24417191  0.85101712     0.12300
C3368       C  0.97796923  0.27283583  0.87248428     0.62900
H3369       H  0.98277142  0.26873114  0.91110481     0.12300
C3370       C  0.02754468  0.21729471  0.91227736     0.55000
H3371       H  0.02081691  0.22130228  0.87435046     0.08100
C3372       C  0.01679878  0.25205117  0.83972908    -0.05700
C3373       C  0.01543952  0.25118971  0.81947910    -0.06500
C3374       C  0.99981518  0.24242111  0.81010210    -0.16000
C3375       C  0.98501210  0.23409430  0.82153536    -0.01600
C3376       C  0.98642933  0.23496219  0.84176739    -0.09200
C3377       C  0.03414462  0.26148412  0.84901784     0.65100
H3378       H  0.02674006  0.25733165  0.81073409     0.10500
C3379       C  0.96744638  0.22480429  0.81263549     0.63500
H3380       H  0.97539362  0.22854004  0.85066359     0.07900
F3381       F  0.04169353  0.22700299  0.92220710    -0.19600
F3382       F  0.03667817  0.20576140  0.89887395    -0.15800
F3383       F  0.01747787  0.20527706  0.92450316    -0.19300
F3384       F  0.96404254  0.26327356  0.86202392    -0.22700
F3385       F  0.98902752  0.28374709  0.86009004    -0.24100
F3386       F  0.96879344  0.28520744  0.88505929    -0.18100
F3387       F  0.97270846  0.20788483  0.80364976    -0.20600
F3388       F  0.95924183  0.23727175  0.79951424    -0.21800
F3389       F  0.95362572  0.22036839  0.82624561    -0.19000
F3390       F  0.04714071  0.26807406  0.83546687    -0.19000
F3391       F  0.04356554  0.24841671  0.86061209    -0.22900
F3392       F  0.02833237  0.27695424  0.86003776    -0.24500
C3393       C  0.04766002  0.20478850  0.04650582    -0.11300
C3394       C  0.05083593  0.19681970  0.02819640     0.11300
C3395       C  0.06321644  0.18089796  0.02616465    -0.03100
C3396       C  0.07200354  0.17337024  0.04265493    -0.05800
C3397       C  0.06891953  0.18117820  0.06107424    -0.16600
C3398       C  0.05636950  0.19708883  0.06315667     0.02300
C3399       C  0.04141197  0.20568499  0.01123159     0.12300
C3400       C  0.06747377  0.17211760  0.00659900     0.62900
H3401       H  0.08156870  0.16118349  0.04123162     0.12300
C3402       C  0.05250800  0.20615640  0.08260984     0.55000
H3403       H  0.03823675  0.21711315  0.04760165     0.08100
C3404       C  0.02221061  0.20138462  0.00608792    -0.05700
C3405       C  0.01430549  0.21042258  0.98982562    -0.06500
C3406       C  0.02485964  0.22372714  0.97892453    -0.16000
C3407       C  0.04403907  0.22798065  0.98407143    -0.01600
C3408       C  0.05210008  0.21866971  0.00010186    -0.09200
C3409       C  0.00998836  0.18777646  0.01803703     0.65100
H3410       H  0.99939644  0.20799710  0.98607834     0.10500
C3411       C  0.05562061  0.24283701  0.97310079     0.63500
H3412       H  0.06671701  0.22179104  0.00440776     0.07900
F3413       F  0.04120038  0.22245297  0.08106416    -0.19600
F3414       F  0.06965632  0.21139879  0.09116753    -0.15800
F3415       F  0.04300168  0.19317944  0.09427467    -0.19300
F3416       F  0.07788520  0.18501313  0.99564275    -0.22700
F3417       F  0.05057866  0.16772995  0.99713542    -0.24100
F3418       F  0.07803658  0.15534079  0.00815363    -0.18100
F3419       F  0.04655948  0.26050645  0.97388644    -0.20600
F3420       F  0.05730704  0.23720799  0.95417047    -0.21800
F3421       F  0.07393576  0.24496011  0.98052606    -0.19000
F3422       F  0.99186082  0.18531365  0.01023861    -0.19000
F3423       F  0.00783809  0.19503530  0.03641034    -0.22900
F3424       F  0.01864614  0.16994191  0.01908674    -0.24500
C3425       C  0.34025601  0.02526362  0.25362834    -0.11300
C3426       C  0.35110585  0.00946047  0.24731807     0.11300
C3427       C  0.34143416  0.99238265  0.24169820    -0.03100
C3428       C  0.32115224  0.99239071  0.24080316    -0.05800
C3429       C  0.31033203  0.00836938  0.24666491    -0.16600
C3430       C  0.31996918  0.02484519  0.25379130     0.02300
C3431       C  0.37256543  0.01113357  0.24712615     0.12300
C3432       C  0.35241568  0.97391839  0.23782587     0.62900
H3433       H  0.31351633  0.97970448  0.23596891     0.12300
C3434       C  0.30878315  0.04185520  0.26153909     0.55000
H3435       H  0.34786523  0.03796625  0.25845790     0.08100
C3436       C  0.38281821  0.01746923  0.23065623    -0.05700
C3437       C  0.40310303  0.01813665  0.23132781    -0.06500
C3438       C  0.41335130  0.01296370  0.24792189    -0.16000
C3439       C  0.40308369  0.00699683  0.26446824    -0.01600
C3440       C  0.38280268  0.00639985  0.26385917    -0.09200
C3441       C  0.37234768  0.02367707  0.21252082     0.65100
H3442       H  0.41119383  0.02255797  0.21878593     0.10500
C3443       C  0.41361477  0.00034973  0.28233097     0.63500
H3444       H  0.37473901  0.00171531  0.27632078     0.07900
F3445       F  0.32079965  0.05619432  0.26835182    -0.19600
F3446       F  0.29718712  0.03592145  0.27655614    -0.15800
F3447       F  0.29745515  0.04952493  0.24714937    -0.19300
F3448       F  0.36117899  0.96795200  0.25462202    -0.22700
F3449       F  0.36633473  0.97672297  0.22396472    -0.24100
F3450       F  0.34041290  0.95932059  0.23156144    -0.18100
F3451       F  0.40108751  0.99599561  0.29716529    -0.20600
F3452       F  0.42594466  0.01460159  0.28867009    -0.21800
F3453       F  0.42409619  0.98402636  0.27804208    -0.19000
F3454       F  0.38498418  0.02921643  0.19818395    -0.19000
F3455       F  0.36052579  0.03909041  0.21661808    -0.22900
F3456       F  0.36128865  0.00876839  0.20544732    -0.24500
C3457       C  0.22726668  0.97397903  0.29330305    -0.11300
C3458       C  0.21197206  0.98695320  0.29543878     0.11300
C3459       C  0.21349501  0.00567502  0.28763295    -0.03100
C3460       C  0.23017408  0.01051840  0.27732147    -0.05800
C3461       C  0.24498055  0.99717182  0.27411409    -0.16600
C3462       C  0.24361053  0.97859713  0.28227397     0.02300
C3463       C  0.19441862  0.98021164  0.30556530     0.12300
C3464       C  0.19739777  0.02028146  0.28963823     0.62900
H3465       H  0.23137445  0.02458186  0.27071773     0.12300
C3466       C  0.25866145  0.96339170  0.27826268     0.55000
H3467       H  0.22583854  0.95981780  0.29962648     0.08100
C3468       C  0.18095358  0.96765722  0.29676753    -0.05700
C3469       C  0.16603370  0.95989677  0.30806607    -0.06500
C3470       C  0.16427347  0.96442948  0.32764718    -0.16000
C3471       C  0.17649693  0.97861761  0.33575939    -0.01600
C3472       C  0.19168506  0.98590035  0.32466912    -0.09200
C3473       C  0.18283730  0.96176309  0.27582143     0.65100
H3474       H  0.15658021  0.94907227  0.30205432     0.10500
C3475       C  0.17424015  0.98652023  0.35598018     0.63500
H3476       H  0.20176010  0.99589044  0.33113077     0.07900
F3477       F  0.25979309  0.96005489  0.25868656    -0.19600
F3478       F  0.25435300  0.94613550  0.28721257    -0.15800
F3479       F  0.27631217  0.96960198  0.28490823    -0.19300
F3480       F  0.19609606  0.02623392  0.30854729    -0.22700
F3481       F  0.18007890  0.01225773  0.28412274    -0.24100
F3482       F  0.20053035  0.03633047  0.27827617    -0.18100
F3483       F  0.18985722  0.98109498  0.36697614    -0.20600
F3484       F  0.15763132  0.98032641  0.36494513    -0.21800
F3485       F  0.17357674  0.00639094  0.35518287    -0.19000
F3486       F  0.16674361  0.95192379  0.26947362    -0.19000
F3487       F  0.19859908  0.94992821  0.27355914    -0.22900
F3488       F  0.18507108  0.97783812  0.26434487    -0.24500
C3489       C  0.23290309  0.03750755  0.18845990    -0.11300
C3490       C  0.22078053  0.02272349  0.18197497     0.11300
C3491       C  0.22465424  0.00344269  0.18712245    -0.03100
C3492       C  0.23977588  0.99978909  0.19998861    -0.05800
C3493       C  0.25091952  0.01473846  0.20775337    -0.16600
C3494       C  0.24777367  0.03387058  0.20166596     0.02300
C3495       C  0.20329316  0.02805064  0.17104653     0.12300
C3496       C  0.21229388  0.98696043  0.17979106     0.62900
H3497       H  0.24223732  0.98529654  0.20512287     0.12300
C3498       C  0.25931904  0.05040012  0.20999773     0.55000
H3499       H  0.22986083  0.05209171  0.18395262     0.08100
C3500       C  0.18699186  0.03605800  0.18026129    -0.05700
C3501       C  0.17147152  0.04220578  0.16888873    -0.06500
C3502       C  0.17165962  0.04002274  0.14884010    -0.16000
C3503       C  0.18688471  0.02966634  0.14005468    -0.01600
C3504       C  0.20291035  0.02470862  0.15121068    -0.09200
C3505       C  0.18623257  0.03867680  0.20192948     0.65100
H3506       H  0.15967082  0.04988863  0.17548781     0.10500
C3507       C  0.18625674  0.02348519  0.11910813     0.63500
H3508       H  0.21533586  0.01827528  0.14441796     0.07900
F3509       F  0.25694720  0.05109438  0.22973549    -0.19600
F3510       F  0.25367097  0.06794628  0.20250994    -0.15800
F3511       F  0.27853878  0.04777931  0.20580044    -0.19300
F3512       F  0.21384849  0.98563046  0.16003192    -0.22700
F3513       F  0.19328096  0.99001742  0.18463685    -0.24100
F3514       F  0.21785072  0.96949346  0.18750015    -0.18100
F3515       F  0.19237291  0.03830328  0.10736176    -0.20600
F3516       F  0.16776652  0.01820172  0.11406250    -0.21800
F3517       F  0.19801691  0.00775101  0.11595820    -0.19000
F3518       F  0.16809732  0.04403239  0.20805885    -0.19000
F3519       F  0.19905780  0.05280223  0.20747785    -0.22900
F3520       F  0.19090295  0.02163780  0.21102778    -0.24500
C3521       C  0.23548201  0.87411804  0.98853226    -0.11300
C3522       C  0.25070801  0.86486576  0.99801583     0.11300
C3523       C  0.26508115  0.87627811  0.00693549    -0.03100
C3524       C  0.26314298  0.89653514  0.00694918    -0.05800
C3525       C  0.24753649  0.90577817  0.99806417    -0.16600
C3526       C  0.23373911  0.89440066  0.98823724     0.02300
C3527       C  0.25120188  0.84322896  0.99862747     0.12300
C3528       C  0.28256923  0.86704852  0.01613030     0.62900
H3529       H  0.27392827  0.90538424  0.01385417     0.12300
C3530       C  0.21769868  0.90370214  0.97680842     0.55000
H3531       H  0.22491753  0.86525617  0.98131660     0.08100
C3532       C  0.23986085  0.83249496  0.01177019    -0.05700
C3533       C  0.24189373  0.81228083  0.01246413    -0.06500
C3534       C  0.25494218  0.80245006  0.00062522    -0.16000
C3535       C  0.26594333  0.81309924  0.98714389    -0.01600
C3536       C  0.26372992  0.83331385  0.98626232    -0.09200
C3537       C  0.22558564  0.84236201  0.02497500     0.65100
H3538       H  0.23329736  0.80391698  0.02238626     0.10500
C3539       C  0.27976975  0.80311090  0.97357366     0.63500
H3540       H  0.27202410  0.84163518  0.97605882     0.07900
F3541       F  0.20728684  0.89030316  0.96640599    -0.19600
F3542       F  0.22534533  0.91684294  0.96397143    -0.15800
F3543       F  0.20521750  0.91302030  0.98911070    -0.19300
F3544       F  0.29354556  0.85823131  0.00211578    -0.22700
F3545       F  0.27693073  0.85346116  0.02950463    -0.24100
F3546       F  0.29401534  0.88043673  0.02539387    -0.18100
F3547       F  0.28747327  0.81572141  0.96023796    -0.20600
F3548       F  0.27032497  0.78868071  0.96365116    -0.21800
F3549       F  0.29472411  0.79521046  0.98395970    -0.19000
F3550       F  0.21713593  0.82955391  0.03765464    -0.19000
F3551       F  0.21119196  0.85069137  0.01414498    -0.22900
F3552       F  0.23472582  0.85643701  0.03564269    -0.24500
C3553       C  0.16864952  0.01760977  0.04586009    -0.11300
C3554       C  0.18579260  0.01804491  0.03542361     0.11300
C3555       C  0.19466766  0.03598936  0.03139904    -0.03100
C3556       C  0.18657042  0.05295789  0.03902242    -0.05800
C3557       C  0.16997854  0.05240109  0.05038647    -0.16600
C3558       C  0.16049861  0.03449550  0.05342789     0.02300
C3559       C  0.19445744  0.99945684  0.02923665     0.12300
C3560       C  0.21276074  0.03711412  0.01929541     0.62900
H3561       H  0.19349278  0.06671451  0.03672235     0.12300
C3562       C  0.14154640  0.03319425  0.06419139     0.55000
H3563       H  0.16191399  0.00379403  0.04836911     0.08100
C3564       C  0.20658259  0.98866803  0.04152664    -0.05700
C3565       C  0.21699858  0.97312222  0.03374150    -0.06500
C3566       C  0.21531368  0.96796095  0.01431047    -0.16000
C3567       C  0.20180622  0.97765403  0.00256234    -0.01600
C3568       C  0.19140965  0.99319186  0.01033265    -0.09200
C3569       C  0.20881775  0.99390002  0.06261456     0.65100
H3570       H  0.22743471  0.96559729  0.04248804     0.10500
C3571       C  0.19903836  0.97211485  0.98166613     0.63500
H3572       H  0.18163422  0.00132431  0.00136807     0.07900
F3573       F  0.14418826  0.03745719  0.08341303    -0.19600
F3574       F  0.13358906  0.01497529  0.06310618    -0.15800
F3575       F  0.12858854  0.04594825  0.05622773    -0.19300
F3576       F  0.20886800  0.03072070  0.00088410    -0.22700
F3577       F  0.22698076  0.02578140  0.02725858    -0.24100
F3578       F  0.21969641  0.05573243  0.01804291    -0.18100
F3579       F  0.18397180  0.98206033  0.97332163    -0.20600
F3580       F  0.19504366  0.95268322  0.98039098    -0.21800
F3581       F  0.21554849  0.97610489  0.97137682    -0.19000
F3582       F  0.22213075  0.98230043  0.07174230    -0.19000
F3583       F  0.19138850  0.99168551  0.07187474    -0.22900
F3584       F  0.21481247  0.01277092  0.06445776    -0.24500
C3585       C  0.26238784  0.33909689  0.00338177    -0.11300
C3586       C  0.24468912  0.34806524  0.99983693     0.11300
C3587       C  0.22858218  0.33646365  0.99539483    -0.03100
C3588       C  0.23079573  0.31630696  0.99457848    -0.05800
C3589       C  0.24851190  0.30704582  0.99803416    -0.16600
C3590       C  0.26463531  0.31883270  0.00291210     0.02300
C3591       C  0.24366602  0.36967119  0.99999108     0.12300
C3592       C  0.20908710  0.34533933  0.99123773     0.62900
H3593       H  0.21848000  0.30760938  0.99080124     0.12300
C3594       C  0.28410884  0.31045620  0.00802674     0.55000
H3595       H  0.27457498  0.34826906  0.00647736     0.08100
C3596       C  0.24274901  0.38060382  0.01718898    -0.05700
C3597       C  0.24224210  0.40094520  0.01601748    -0.06500
C3598       C  0.24183153  0.41071398  0.99826668    -0.16000
C3599       C  0.24227818  0.39958996  0.98106431    -0.01600
C3600       C  0.24368424  0.37935508  0.98231742    -0.09200
C3601       C  0.24195721  0.37077417  0.03667312     0.65100
H3602       H  0.24180704  0.40942307  0.02906657     0.10500
C3603       C  0.24143311  0.40885502  0.96134669     0.63500
H3604       H  0.24448393  0.37076009  0.96936070     0.07900
F3605       F  0.28210422  0.29695622  0.02248804    -0.19600
F3606       F  0.29675546  0.32440401  0.01452041    -0.15800
F3607       F  0.29221517  0.30203124  0.99199940    -0.19300
F3608       F  0.20995064  0.35586733  0.97442331    -0.22700
F3609       F  0.20370597  0.35732463  0.00613865    -0.24100
F3610       F  0.19493425  0.33150291  0.98911706    -0.18100
F3611       F  0.25530171  0.42302672  0.95992236    -0.20600
F3612       F  0.22343107  0.41671436  0.95850193    -0.21800
F3613       F  0.24463599  0.39569723  0.94675433    -0.19000
F3614       F  0.24033653  0.38390524  0.05154443    -0.19000
F3615       F  0.25846039  0.36017551  0.03961056    -0.22900
F3616       F  0.22626503  0.35861174  0.03748553    -0.24500
C3617       C  0.16284947  0.18913835  0.01042124    -0.11300
C3618       C  0.18102123  0.19530513  0.01656758     0.11300
C3619       C  0.19069706  0.18500628  0.03129948    -0.03100
C3620       C  0.18127925  0.16943067  0.04015849    -0.05800
C3621       C  0.16261851  0.16412408  0.03486628    -0.16600
C3622       C  0.15345182  0.17360200  0.01938958     0.02300
C3623       C  0.18949798  0.21302437  0.00807729     0.12300
C3624       C  0.21062417  0.19085573  0.03810903     0.62900
H3625       H  0.18788239  0.16212889  0.05221048     0.12300
C3626       C  0.13356009  0.16753817  0.01285272     0.55000
H3627       H  0.15571209  0.19712381  0.99914644     0.08100
C3628       C  0.19960607  0.21271974  0.99047144    -0.05700
C3629       C  0.21151491  0.22842701  0.98595890    -0.06500
C3630       C  0.21353648  0.24424597  0.99845486    -0.16000
C3631       C  0.20150962  0.24553622  0.01482653    -0.01600
C3632       C  0.18936047  0.22990034  0.01916442    -0.09200
C3633       C  0.19824925  0.19567800  0.97686849     0.65100
H3634       H  0.22041136  0.22789884  0.97319135     0.10500
C3635       C  0.20253341  0.26254945  0.02842978     0.63500
H3636       H  0.18085596  0.23001535  0.03220130     0.07900
F3637       F  0.13321547  0.14788362  0.00975834    -0.19600
F3638       F  0.12831493  0.17653980  0.99591260    -0.15800
F3639       F  0.12018432  0.17216158  0.02678868    -0.19300
F3640       F  0.20992299  0.20871585  0.04679751    -0.22700
F3641       F  0.22310517  0.19159656  0.02266358    -0.24100
F3642       F  0.21797892  0.17796416  0.05134790    -0.18100
F3643       F  0.18971196  0.26074718  0.04353411    -0.20600
F3644       F  0.19810502  0.27922647  0.01857639    -0.21800
F3645       F  0.22081410  0.26403618  0.03606322    -0.19000
F3646       F  0.21021996  0.19778942  0.96111439    -0.19000
F3647       F  0.17961998  0.19400407  0.97020912    -0.22900
F3648       F  0.20332125  0.17891546  0.98625550    -0.24500
C3649       C  0.84307529  0.99027917  0.23364114    -0.11300
C3650       C  0.85240406  0.00731326  0.23917350     0.11300
C3651       C  0.84123585  0.02381290  0.24343396    -0.03100
C3652       C  0.82102598  0.02253057  0.24218317    -0.05800
C3653       C  0.81162768  0.00540325  0.23679179    -0.16600
C3654       C  0.82286279  0.98888147  0.23274676     0.02300
C3655       C  0.87390921  0.00736415  0.24016705     0.12300
C3656       C  0.85060997  0.04264745  0.24940360     0.62900
H3657       H  0.81232798  0.03500741  0.24543864     0.12300
C3658       C  0.81361670  0.96960010  0.22838779     0.55000
H3659       H  0.85186201  0.97791505  0.23019831     0.08100
C3660       C  0.88407743  0.99896152  0.25562413    -0.05700
C3661       C  0.90434851  0.99921202  0.25532806    -0.06500
C3662       C  0.91502935  0.00734114  0.24003622    -0.16000
C3663       C  0.90456699  0.01575221  0.22445923    -0.01600
C3664       C  0.88425136  0.01542381  0.22488455    -0.09200
C3665       C  0.87352783  0.98955817  0.27231079     0.65100
H3666       H  0.91198792  0.99277437  0.26722420     0.10500
C3667       C  0.91436377  0.02490402  0.20720528     0.63500
H3668       H  0.87608001  0.02144460  0.21309812     0.07900
F3669       F  0.82700726  0.95492415  0.22779170    -0.19600
F3670       F  0.80454943  0.97031577  0.21073291    -0.15800
F3671       F  0.80035458  0.96512880  0.24252025    -0.19300
F3672       F  0.86186611  0.04958890  0.23458592    -0.22700
F3673       F  0.86198612  0.03980059  0.26543571    -0.24100
F3674       F  0.83714250  0.05658319  0.25387125    -0.18100
F3675       F  0.90129397  0.03138046  0.19369192    -0.20600
F3676       F  0.92605752  0.01157396  0.19823150    -0.21800
F3677       F  0.92507041  0.04060838  0.21307590    -0.19000
F3678       F  0.88598197  0.98368977  0.28665984    -0.19000
F3679       F  0.86365714  0.97354864  0.26587967    -0.22900
F3680       F  0.86064100  0.00237291  0.28031374    -0.24500
C3681       C  0.99623713  0.95514770  0.27646803    -0.11300
C3682       C  0.00418261  0.96515051  0.29207741     0.11300
C3683       C  0.99632936  0.98309179  0.29770191    -0.03100
C3684       C  0.98106607  0.99074866  0.28691768    -0.05800
C3685       C  0.97417021  0.98138524  0.27047093    -0.16600
C3686       C  0.98146621  0.96316078  0.26533126     0.02300
C3687       C  0.02193033  0.95728384  0.30083763     0.12300
C3688       C  0.00474310  0.99464170  0.31422303     0.62900
H3689       H  0.97562002  0.00497181  0.29015228     0.12300
C3690       C  0.97470738  0.95307062  0.24720644     0.55000
H3691       H  0.00266898  0.94162460  0.27222998     0.08100
C3692       C  0.02152721  0.94153726  0.31362085    -0.05700
C3693       C  0.03903236  0.93417561  0.32036951    -0.06500
C3694       C  0.05687849  0.94193066  0.31472195    -0.16000
C3695       C  0.05721901  0.95786151  0.30198760    -0.01600
C3696       C  0.03962105  0.96509255  0.29508598    -0.09200
C3697       C  0.00273163  0.93229004  0.31980394     0.65100
H3698       H  0.03886974  0.92207112  0.33015613     0.10500
C3699       C  0.07588328  0.96684064  0.29517355     0.63500
H3700       H  0.03947159  0.97688551  0.28492803     0.07900
F3701       F  0.98206420  0.93464443  0.24579061    -0.19600
F3702       F  0.98057188  0.96336666  0.23123661    -0.15800
F3703       F  0.95488772  0.95180982  0.24722872    -0.19300
F3704       F  0.02317112  0.00046146  0.30968605    -0.22700
F3705       F  0.00525189  0.98355740  0.33069800    -0.24100
F3706       F  0.99400825  0.01093781  0.31810289    -0.18100
F3707       F  0.07278701  0.98109381  0.28162910    -0.20600
F3708       F  0.08737237  0.95290699  0.28689139    -0.21800
F3709       F  0.08540525  0.97510317  0.31053503    -0.19000
F3710       F  0.00545001  0.91886946  0.33424447    -0.19000
F3711       F  0.99440146  0.92304381  0.30431073    -0.22900
F3712       F  0.99024062  0.94613485  0.32663726    -0.24500
C3713       C  0.00574429  0.04949172  0.21302261    -0.11300
C3714       C  0.01380906  0.03925992  0.19763993     0.11300
C3715       C  0.00538695  0.02165947  0.19170017    -0.03100
C3716       C  0.98918076  0.01474126  0.20173220    -0.05800
C3717       C  0.98136764  0.02481760  0.21737535    -0.16600
C3718       C  0.98973800  0.04243259  0.22316337     0.02300
C3719       C  0.03145624  0.04718259  0.18851051     0.12300
C3720       C  0.01358161  0.01020887  0.17498301     0.62900
H3721       H  0.98293748  0.00096863  0.19796213     0.12300
C3722       C  0.98232187  0.05315590  0.24063621     0.55000
H3723       H  0.01256710  0.06277989  0.21745820     0.08100
C3724       C  0.03050456  0.06191936  0.17457958    -0.05700
C3725       C  0.04772004  0.06931911  0.16707291    -0.06500
C3726       C  0.06581134  0.06261047  0.17307307    -0.16000
C3727       C  0.06679647  0.04780769  0.18704579    -0.01600
C3728       C  0.04947453  0.04042749  0.19465037    -0.09200
C3729       C  0.01142159  0.07037900  0.16822161     0.65100
H3730       H  0.04715790  0.08069050  0.15644406     0.10500
C3731       C  0.08591602  0.04040093  0.19443204     0.63500
H3732       H  0.04981041  0.02934796  0.20558280     0.07900
F3733       F  0.99131019  0.07077824  0.24290167    -0.19600
F3734       F  0.98558517  0.04235793  0.25700588    -0.15800
F3735       F  0.96282488  0.05635667  0.23872767    -0.19300
F3736       F  0.03262353  0.00580487  0.17837768    -0.22700
F3737       F  0.01232163  0.02083286  0.15825375    -0.24100
F3738       F  0.00377321  0.99311109  0.17218470    -0.18100
F3739       F  0.09662165  0.05554043  0.20164679    -0.20600
F3740       F  0.09594740  0.03164500  0.17969195    -0.21800
F3741       F  0.08356495  0.02700862  0.20896435    -0.19000
F3742       F  0.01354056  0.08231163  0.15243780    -0.19000
F3743       F  0.00365130  0.08101141  0.18309329    -0.22900
F3744       F  0.99868948  0.05596947  0.16322483    -0.24500
C3745       C  0.62135746  0.02011927  0.74971357    -0.11300
C3746       C  0.63086157  0.00477817  0.75867591     0.11300
C3747       C  0.61986723  0.98935275  0.76627568    -0.03100
C3748       C  0.59964614  0.98955812  0.76404861    -0.05800
C3749       C  0.59016038  0.00500243  0.75513038    -0.16600
C3750       C  0.60117411  0.02057212  0.74792989     0.02300
C3751       C  0.65237922  0.00523403  0.75965059     0.12300
C3752       C  0.62949653  0.97305306  0.77711568     0.62900
H3753       H  0.59102842  0.97790393  0.76973851     0.12300
C3754       C  0.59156236  0.03760032  0.73832128     0.55000
H3755       H  0.62995711  0.03188133  0.74422671     0.08100
C3756       C  0.66399825  0.99996721  0.74378335    -0.05700
C3757       C  0.68416498  0.00099963  0.74555147    -0.06500
C3758       C  0.69320054  0.00716827  0.76257535    -0.16000
C3759       C  0.68146994  0.01237729  0.77855720    -0.01600
C3760       C  0.66125814  0.01137524  0.77669110    -0.09200
C3761       C  0.65512479  0.99387400  0.72479387     0.65100
H3762       H  0.69310488  0.99718586  0.73339995     0.10500
C3763       C  0.69000544  0.01953224  0.79735816     0.63500
H3764       H  0.65209796  0.01548253  0.78858028     0.07900
F3765       F  0.60483620  0.05041083  0.73085806    -0.19600
F3766       F  0.58042077  0.04731745  0.75158803    -0.15800
F3767       F  0.58004009  0.03126877  0.72340522    -0.19300
F3768       F  0.63723404  0.98004882  0.79404017    -0.22700
F3769       F  0.64401456  0.96511414  0.76612522    -0.24100
F3770       F  0.61665018  0.95856227  0.78169082    -0.18100
F3771       F  0.67600460  0.02598737  0.80993037    -0.20600
F3772       F  0.70243428  0.03466129  0.79385293    -0.21800
F3773       F  0.69978186  0.00477440  0.80635525    -0.19000
F3774       F  0.66872193  0.98647975  0.71230410    -0.19000
F3775       F  0.64666676  0.00962088  0.71614715    -0.22900
F3776       F  0.64135765  0.97983982  0.72774329    -0.24500
C3777       C  0.51122419  0.95416891  0.71706326    -0.11300
C3778       C  0.49876804  0.96439587  0.70491599     0.11300
C3779       C  0.50139779  0.98446752  0.70252848    -0.03100
C3780       C  0.51627641  0.99364448  0.71276204    -0.05800
C3781       C  0.52853438  0.98347382  0.72518308    -0.16600
C3782       C  0.52623591  0.96336010  0.72713008     0.02300
C3783       C  0.48267913  0.95382341  0.69542623     0.12300
C3784       C  0.48833870  0.99620125  0.68952042     0.62900
H3785       H  0.51794722  0.00910945  0.71182689     0.12300
C3786       C  0.53904009  0.95187346  0.74047584     0.55000
H3787       H  0.50873510  0.93891926  0.71900037     0.08100
C3788       C  0.48574081  0.94168202  0.67943454    -0.05700
C3789       C  0.46984611  0.93247602  0.67106131    -0.06500
C3790       C  0.45093467  0.93468994  0.67809161    -0.16000
C3791       C  0.44789603  0.94707374  0.69406743    -0.01600
C3792       C  0.46397558  0.95603194  0.70270314    -0.09200
C3793       C  0.50570920  0.93835227  0.67120739     0.65100
H3794       H  0.47222661  0.92329020  0.65873338     0.10500
C3795       C  0.42802235  0.95084314  0.70215086     0.63500
H3796       H  0.46209314  0.96507808  0.71523510     0.07900
F3797       F  0.53423676  0.93255306  0.74056083    -0.19600
F3798       F  0.53736841  0.95876332  0.75905857    -0.15800
F3799       F  0.55791959  0.95352100  0.73454561    -0.19300
F3800       F  0.46969141  0.99567928  0.69627823    -0.22700
F3801       F  0.48878521  0.98880589  0.67107200    -0.24100
F3802       F  0.49391069  0.01529538  0.68866965    -0.18100
F3803       F  0.42860372  0.96288718  0.71800640    -0.20600
F3804       F  0.41963754  0.93370620  0.70774519    -0.21800
F3805       F  0.41675702  0.95960665  0.68833947    -0.19000
F3806       F  0.50529329  0.92670665  0.65505545    -0.19000
F3807       F  0.51719487  0.92945112  0.68471816    -0.22900
F3808       F  0.51390421  0.95571398  0.66606030    -0.24500
C3809       C  0.50922746  0.24596350  0.66537926    -0.11300
C3810       C  0.49400708  0.23710247  0.65555087     0.11300
C3811       C  0.47956108  0.22770953  0.66648915    -0.03100
C3812       C  0.47997134  0.22910936  0.68682168    -0.05800
C3813       C  0.49470410  0.23887228  0.69675600    -0.16600
C3814       C  0.51013034  0.24671580  0.68571470     0.02300
C3815       C  0.49421982  0.23736538  0.63382874     0.12300
C3816       C  0.46382853  0.21611964  0.65676459     0.62900
H3817       H  0.46852134  0.22267683  0.69515626     0.12300
C3818       C  0.52808936  0.25492414  0.69506972     0.55000
H3819       H  0.52056443  0.25233725  0.65683049     0.08100
C3820       C  0.48799913  0.25346960  0.62299167    -0.05700
C3821       C  0.48967338  0.25316346  0.60264772    -0.06500
C3822       C  0.49746538  0.23736107  0.59258318    -0.16000
C3823       C  0.50333396  0.22102197  0.60363644    -0.01600
C3824       C  0.50187312  0.22156197  0.62396046    -0.09200
C3825       C  0.47978029  0.27102929  0.63299655     0.65100
H3826       H  0.48517169  0.26557488  0.59442770     0.10500
C3827       C  0.51050822  0.20263139  0.59433003     0.63500
H3828       H  0.50687193  0.20953319  0.63246964     0.07900
F3829       F  0.52401470  0.27216233  0.70404896    -0.19600
F3830       F  0.54242953  0.25840777  0.68171706    -0.15800
F3831       F  0.53520521  0.24195985  0.70835462    -0.19300
F3832       F  0.47188135  0.20143614  0.64608312    -0.22700
F3833       F  0.45322688  0.22781870  0.64474717    -0.24100
F3834       F  0.45142608  0.20789021  0.66998351    -0.18100
F3835       F  0.52857740  0.20552627  0.58662176    -0.20600
F3836       F  0.49790152  0.19694282  0.58010793    -0.21800
F3837       F  0.51177749  0.18766959  0.60739845    -0.19000
F3838       F  0.47341943  0.28466107  0.61999056    -0.19000
F3839       F  0.49369355  0.27943588  0.64442129    -0.22900
F3840       F  0.46439687  0.26572704  0.64438680    -0.24500
C3841       C  0.48364120  0.25858937  0.12420339    -0.11300
C3842       C  0.50039956  0.26374060  0.13407679     0.11300
C3843       C  0.51675628  0.26964843  0.12351303    -0.03100
C3844       C  0.51586709  0.26979360  0.10324567    -0.05800
C3845       C  0.49920823  0.26421505  0.09323800    -0.16600
C3846       C  0.48251709  0.25918233  0.10397822     0.02300
C3847       C  0.50049317  0.26247218  0.15550915     0.12300
C3848       C  0.53521549  0.27534532  0.13364191     0.62900
H3849       H  0.52848902  0.27369527  0.09502833     0.12300
C3850       C  0.46335546  0.25484526  0.09445509     0.55000
H3851       H  0.47135705  0.25393330  0.13255463     0.08100
C3852       C  0.49210722  0.27675245  0.16726767    -0.05700
C3853       C  0.49345278  0.27491416  0.18736912    -0.06500
C3854       C  0.50219966  0.25895545  0.19630225    -0.16000
C3855       C  0.50988719  0.24411962  0.18427967    -0.01600
C3856       C  0.50896045  0.24637708  0.16410954    -0.09200
C3857       C  0.48150103  0.29376089  0.15863648     0.65100
H3858       H  0.48716189  0.28596660  0.19629275     0.10500
C3859       C  0.51907386  0.22591744  0.19218613     0.63500
H3860       H  0.51477489  0.23543808  0.15468431     0.07900
F3861       F  0.44836644  0.25573062  0.10751640    -0.19600
F3862       F  0.46364577  0.23656061  0.08666169    -0.15800
F3863       F  0.45961578  0.26815003  0.08015826    -0.19300
F3864       F  0.54314708  0.25941373  0.14244919    -0.22700
F3865       F  0.53150919  0.28921473  0.14739666    -0.24100
F3866       F  0.54861285  0.28277213  0.12094809    -0.18100
F3867       F  0.50552568  0.21519745  0.20201710    -0.20600
F3868       F  0.53411715  0.23062058  0.20428914    -0.21800
F3869       F  0.52636646  0.21431917  0.17773515    -0.19000
F3870       F  0.47511515  0.30642347  0.17260510    -0.19000
F3871       F  0.46565085  0.28730774  0.14856621    -0.22900
F3872       F  0.49345714  0.30374065  0.14630399    -0.24500
C3873       C  0.32703735  0.01659031  0.95669684    -0.11300
C3874       C  0.30703519  0.01698997  0.95840248     0.11300
C3875       C  0.29682925  0.03394170  0.95349840    -0.03100
C3876       C  0.30698595  0.04943029  0.94523587    -0.05800
C3877       C  0.32687757  0.04849944  0.94243475    -0.16600
C3878       C  0.33724038  0.03219710  0.94897583     0.02300
C3879       C  0.29744186  0.99982327  0.96666570     0.12300
C3880       C  0.27538962  0.03567201  0.95707725     0.62900
H3881       H  0.29941901  0.06211738  0.94036261     0.12300
C3882       C  0.35905238  0.03144900  0.94820610     0.55000
H3883       H  0.33458433  0.00379370  0.96132570     0.08100
C3884       C  0.29071684  0.98440784  0.95514051    -0.05700
C3885       C  0.28050411  0.96931930  0.96407165    -0.06500
C3886       C  0.27762336  0.96901890  0.98403965    -0.16000
C3887       C  0.28639192  0.98331936  0.99563747    -0.01600
C3888       C  0.29580440  0.99873289  0.98668477    -0.09200
C3889       C  0.29433548  0.98394818  0.93360561     0.65100
H3890       H  0.27382418  0.95820409  0.95543723     0.10500
C3891       C  0.28570641  0.98320443  0.01743807     0.63500
H3892       H  0.30180443  0.01019183  0.99541319     0.07900
F3893       F  0.36524916  0.03003867  0.92938318    -0.19600
F3894       F  0.36623990  0.01582148  0.95819780    -0.15800
F3895       F  0.36659782  0.04792331  0.95642116    -0.19300
F3896       F  0.27151070  0.03257542  0.97631641    -0.22700
F3897       F  0.26550648  0.02226338  0.94626596    -0.24100
F3898       F  0.26858146  0.05373841  0.95228364    -0.18100
F3899       F  0.30384325  0.98693491  0.02469269    -0.20600
F3900       F  0.27979348  0.96569291  0.02477997    -0.21800
F3901       F  0.27329582  0.99738648  0.02369993    -0.19000
F3902       F  0.28623091  0.96787550  0.92509244    -0.19000
F3903       F  0.31388140  0.98356420  0.93017946    -0.22900
F3904       F  0.28665178  0.00003776  0.92490385    -0.24500
C3905       C  0.33090161  0.18679527  0.98561268    -0.11300
C3906       C  0.31262382  0.19046232  0.97811027     0.11300
C3907       C  0.30425007  0.17703154  0.96524901    -0.03100
C3908       C  0.31489584  0.16067646  0.95977619    -0.05800
C3909       C  0.33365428  0.15741734  0.96648931    -0.16600
C3910       C  0.34150232  0.17035078  0.98037833     0.02300
C3911       C  0.30291101  0.20882236  0.98352250     0.12300
C3912       C  0.28437029  0.18021417  0.95685917     0.62900
H3913       H  0.30897303  0.15082243  0.94927694     0.12300
C3914       C  0.36083995  0.16701480  0.98994564     0.55000
H3915       H  0.33702864  0.19727140  0.99538542     0.08100
C3916       C  0.29339080  0.21116410  0.00136252    -0.05700
C3917       C  0.28334202  0.22836164  0.00479395    -0.06500
C3918       C  0.28192313  0.24290967  0.99084030    -0.16000
C3919       C  0.29258707  0.24118214  0.97362521    -0.01600
C3920       C  0.30326865  0.22422257  0.97041248    -0.09200
C3921       C  0.29277225  0.19516793  0.01623676     0.65100
H3922       H  0.27497854  0.22990487  0.01784136     0.10500
C3923       C  0.29195174  0.25678156  0.95844862     0.63500
H3924       H  0.31123158  0.22241972  0.95715859     0.07900
F3925       F  0.36336069  0.17879352  0.00581977    -0.19600
F3926       F  0.37552296  0.17094317  0.97719226    -0.15800
F3927       F  0.36214651  0.14816625  0.99614614    -0.19300
F3928       F  0.28435221  0.19656517  0.94558750    -0.22700
F3929       F  0.27110506  0.18235090  0.97147674    -0.24100
F3930       F  0.27857060  0.16491827  0.94549529    -0.18100
F3931       F  0.30346567  0.25242018  0.94282374    -0.20600
F3932       F  0.29841018  0.27385131  0.96627880    -0.21800
F3933       F  0.27334367  0.25917906  0.95194859    -0.19000
F3934       F  0.28259707  0.20051745  0.03248598    -0.19000
F3935       F  0.31115903  0.19042794  0.02194192    -0.22900
F3936       F  0.28399861  0.17909997  0.00849718    -0.24500
C3937       C  0.44419025  0.18027154  0.99555347    -0.11300
C3938       C  0.45131919  0.19837579  0.99074069     0.11300
C3939       C  0.45004296  0.20503505  0.97153675    -0.03100
C3940       C  0.44054962  0.19352488  0.95782022    -0.05800
C3941       C  0.43266281  0.17561374  0.96277500    -0.16600
C3942       C  0.43501926  0.16855434  0.98193011     0.02300
C3943       C  0.46127359  0.20947684  0.00593185     0.12300
C3944       C  0.45866525  0.22422932  0.96566926     0.62900
H3945       H  0.43894809  0.19857313  0.94318580     0.12300
C3946       C  0.42880168  0.14844270  0.98805977     0.55000
H3947       H  0.44601620  0.17536030  0.01021389     0.08100
C3948       C  0.45127800  0.22048357  0.01984374    -0.05700
C3949       C  0.46197425  0.23189805  0.03269219    -0.06500
C3950       C  0.48207502  0.23255988  0.03177503    -0.16000
C3951       C  0.49202784  0.22053746  0.01864650    -0.01600
C3952       C  0.48132757  0.20889734  0.00615208    -0.09200
C3953       C  0.42950337  0.22035052  0.02090132     0.65100
H3954       H  0.45471242  0.24106243  0.04297034     0.10500
C3955       C  0.51382858  0.21990960  0.01774669     0.63500
H3956       H  0.48853398  0.19975475  0.99581415     0.07900
F3957       F  0.40901696  0.14718075  0.98888829    -0.19600
F3958       F  0.43573567  0.14370754  0.00610880    -0.15800
F3959       F  0.43582955  0.13502426  0.97518310    -0.19300
F3960       F  0.47840355  0.22363733  0.96764998    -0.22700
F3961       F  0.45143244  0.23873284  0.97717583    -0.24100
F3962       F  0.45455949  0.22871315  0.94673080    -0.18100
F3963       F  0.52030513  0.20557417  0.00554899    -0.20600
F3964       F  0.52114851  0.21635282  0.03587553    -0.21800
F3965       F  0.52097184  0.23716386  0.01098516    -0.19000
F3966       F  0.42268574  0.23339727  0.03430086    -0.19000
F3967       F  0.42318079  0.20224688  0.02613882    -0.22900
F3968       F  0.42178072  0.22507754  0.00321648    -0.24500
C3969       C  0.27825333  0.03740784  0.80794507    -0.11300
C3970       C  0.29403470  0.02491810  0.80969791     0.11300
C3971       C  0.29309412  0.00641817  0.80125451    -0.03100
C3972       C  0.27676820  0.00154225  0.79040506    -0.05800
C3973       C  0.26177322  0.01468108  0.78704092    -0.16600
C3974       C  0.26223853  0.03278144  0.79633792     0.02300
C3975       C  0.31151974  0.03185516  0.82001219     0.12300
C3976       C  0.30966111  0.99225335  0.80271265     0.62900
H3977       H  0.27614364  0.98769461  0.78328884     0.12300
C3978       C  0.24653235  0.04748715  0.79315031     0.55000
H3979       H  0.27906754  0.05127306  0.81499135     0.08100
C3980       C  0.32471492  0.04480537  0.81143997    -0.05700
C3981       C  0.34025202  0.05174886  0.82248289    -0.06500
C3982       C  0.34316218  0.04594625  0.84164200    -0.16000
C3983       C  0.33073356  0.03172899  0.84959489    -0.01600
C3984       C  0.31479666  0.02544852  0.83880619    -0.09200
C3985       C  0.32221662  0.05147302  0.79078914     0.65100
H3986       H  0.34984018  0.06239589  0.81639962     0.10500
C3987       C  0.33425220  0.02277928  0.86920425     0.63500
H3988       H  0.30458351  0.01550943  0.84509308     0.07900
F3989       F  0.24521080  0.05182440  0.77379166    -0.19600
F3990       F  0.25008680  0.06440139  0.80304884    -0.15800
F3991       F  0.22919113  0.04014472  0.79946249    -0.19300
F3992       F  0.31322231  0.98780788  0.82172835    -0.22700
F3993       F  0.32601149  0.00018383  0.79470013    -0.24100
F3994       F  0.30576842  0.97522282  0.79313845    -0.18100
F3995       F  0.32409106  0.00579513  0.87141783    -0.20600
F3996       F  0.32849928  0.03529463  0.88351815    -0.21800
F3997       F  0.35353484  0.01852622  0.87139644    -0.19000
F3998       F  0.33751237  0.06265047  0.78471173    -0.19000
F3999       F  0.30568229  0.06230294  0.78913927    -0.22900
F4000       F  0.32092642  0.03576366  0.77866936    -0.24500
C4001       C  0.51412326  0.04074397  0.80757732    -0.11300
C4002       C  0.49781611  0.04846783  0.79856815     0.11300
C4003       C  0.49635895  0.04805865  0.77830596    -0.03100
C4004       C  0.51090249  0.03894731  0.76772555    -0.05800
C4005       C  0.52677422  0.03018515  0.77665826    -0.16600
C4006       C  0.52869149  0.03141931  0.79694045     0.02300
C4007       C  0.48208755  0.05659337  0.81051340     0.12300
C4008       C  0.47934236  0.05700760  0.76791362     0.62900
H4009       H  0.50973825  0.03818881  0.75221704     0.12300
C4010       C  0.54537231  0.02208214  0.80739617     0.55000
H4011       H  0.51501661  0.04157681  0.82309452     0.08100
C4012       C  0.46745033  0.04491056  0.81858994    -0.05700
C4013       C  0.45210839  0.05380325  0.82842567    -0.06500
C4014       C  0.45095691  0.07387524  0.83006338    -0.16000
C4015       C  0.46513241  0.08548548  0.82097486    -0.01600
C4016       C  0.48081927  0.07659044  0.81200939    -0.09200
C4017       C  0.46821687  0.02316013  0.81701066     0.65100
H4018       H  0.44129572  0.04512940  0.83550049     0.10500
C4019       C  0.46388447  0.10727619  0.82030576     0.63500
H4020       H  0.49200418  0.08531241  0.80556080     0.07900
F4021       F  0.54389597  0.02418050  0.82713052    -0.19600
F4022       F  0.56244619  0.03047360  0.80166482    -0.15800
F4023       F  0.54580149  0.00261964  0.80329178    -0.19300
F4024       F  0.47986326  0.07675961  0.77007245    -0.22700
F4025       F  0.46227003  0.05009221  0.77536368    -0.24100
F4026       F  0.47953139  0.05291411  0.74844345    -0.18100
F4027       F  0.47300434  0.11502377  0.83618176    -0.20600
F4028       F  0.44497183  0.11322666  0.81999590    -0.21800
F4029       F  0.47256390  0.11438108  0.80386847    -0.19000
F4030       F  0.45175835  0.01463827  0.82423398    -0.19000
F4031       F  0.48377229  0.01631620  0.82726106    -0.22900
F4032       F  0.47004193  0.01770534  0.79798104    -0.24500
C4033       C  0.46331750  0.19372270  0.83173185    -0.11300
C4034       C  0.45807259  0.18518895  0.81411951     0.11300
C4035       C  0.44773763  0.16774626  0.81415846    -0.03100
C4036       C  0.44264232  0.15957371  0.83188094    -0.05800
C4037       C  0.44785328  0.16788321  0.84966192    -0.16600
C4038       C  0.45805296  0.18554858  0.84962173     0.02300
C4039       C  0.46286251  0.19515123  0.79575622     0.12300
C4040       C  0.44258565  0.15750543  0.79551781     0.62900
H4041       H  0.43433565  0.14642779  0.83190863     0.12300
C4042       C  0.46316906  0.19581351  0.86817547     0.55000
H4043       H  0.47118927  0.20715459  0.83129492     0.08100
C4044       C  0.45133386  0.21026231  0.78849321    -0.05700
C4045       C  0.45699749  0.21947803  0.77136638    -0.06500
C4046       C  0.47361263  0.21400176  0.76129412    -0.16000
C4047       C  0.48463832  0.19837330  0.76813211    -0.01600
C4048       C  0.47908128  0.18916811  0.78534015    -0.09200
C4049       C  0.43323243  0.21673443  0.79889001     0.65100
H4050       H  0.44903346  0.23179949  0.76619509     0.10500
C4051       C  0.50258685  0.19204049  0.75755689     0.63500
H4052       H  0.48761157  0.17749475  0.79106492     0.07900
F4053       F  0.44656362  0.20182084  0.87727070    -0.19600
F4054       F  0.47447624  0.21186496  0.86490094    -0.15800
F4055       F  0.47319241  0.18355373  0.88017389    -0.19300
F4056       F  0.45918959  0.15117690  0.78668292    -0.22700
F4057       F  0.43302216  0.16976480  0.78319211    -0.24100
F4058       F  0.43082883  0.14177016  0.79863218    -0.18100
F4059       F  0.51577958  0.20691994  0.75702668    -0.20600
F4060       F  0.49779790  0.18689316  0.73895731    -0.21800
F4061       F  0.51119726  0.17640077  0.76630878    -0.19000
F4062       F  0.42464973  0.23221243  0.78983334    -0.19000
F4063       F  0.43751742  0.22223399  0.81749359    -0.22900
F4064       F  0.42009014  0.20184152  0.79942985    -0.24500
C4065       C  0.69302346  0.31332738  0.96298895    -0.11300
C4066       C  0.68251892  0.29828438  0.97144192     0.11300
C4067       C  0.66249483  0.30034697  0.97404981    -0.03100
C4068       C  0.65344789  0.31674511  0.96648240    -0.05800
C4069       C  0.66362780  0.33096105  0.95622758    -0.16600
C4070       C  0.68392319  0.32966134  0.95513714     0.02300
C4071       C  0.69310176  0.28067852  0.97746223     0.12300
C4072       C  0.65063395  0.28511695  0.98429741     0.62900
H4073       H  0.63800198  0.31813327  0.96766649     0.12300
C4074       C  0.69586738  0.34484755  0.94502625     0.55000
H4075       H  0.70845256  0.31172436  0.96188693     0.08100
C4076       C  0.69923224  0.26655187  0.96406095    -0.05700
C4077       C  0.71149835  0.25168673  0.97041555    -0.06500
C4078       C  0.71758669  0.25063438  0.98961709    -0.16000
C4079       C  0.71012473  0.26386630  0.00324336    -0.01600
C4080       C  0.69820432  0.27885164  0.99683069    -0.09200
C4081       C  0.69319302  0.26749058  0.94308965     0.65100
H4082       H  0.71728989  0.24143463  0.96022813     0.10500
C4083       C  0.71459782  0.26208823  0.02455641     0.63500
H4084       H  0.69328523  0.28972040  0.00683336     0.07900
F4085       F  0.69044043  0.34614741  0.92594769    -0.19600
F4086       F  0.71527838  0.34059736  0.94558669    -0.15800
F4087       F  0.69322077  0.36243307  0.95392103    -0.19300
F4088       F  0.65634906  0.28380086  0.00327030    -0.22700
F4089       F  0.65306741  0.26746008  0.97551246    -0.24100
F4090       F  0.63122377  0.28942140  0.98405586    -0.18100
F4091       F  0.73371773  0.26608134  0.02801946    -0.20600
F4092       F  0.71050227  0.24360581  0.03066150    -0.21800
F4093       F  0.70375602  0.27470505  0.03546168    -0.19000
F4094       F  0.69963769  0.25172102  0.93280516    -0.19000
F4095       F  0.70061554  0.28384613  0.93459241    -0.22900
F4096       F  0.67339296  0.26793177  0.94178311    -0.24500
C4097       C  0.54612527  0.30144112  0.96218516    -0.11300
C4098       C  0.54979574  0.31175137  0.97920688     0.11300
C4099       C  0.56205925  0.32795616  0.97865795    -0.03100
C4100       C  0.56964824  0.33375463  0.96083434    -0.05800
C4101       C  0.56559987  0.32379782  0.94368000    -0.16600
C4102       C  0.55383210  0.30721984  0.94431846     0.02300
C4103       C  0.54046873  0.30518463  0.99734075     0.12300
C4104       C  0.56726791  0.33894076  0.99682545     0.62900
H4105       H  0.57899685  0.34619609  0.96014475     0.12300
C4106       C  0.54998683  0.29540187  0.92640460     0.55000
H4107       H  0.53701851  0.28883590  0.96303568     0.08100
C4108       C  0.52094886  0.30925478  0.00134668    -0.05700
C4109       C  0.51237236  0.30083743  0.01763354    -0.06500
C4110       C  0.52268920  0.28866432  0.02994547    -0.16000
C4111       C  0.54245235  0.28547288  0.02656019    -0.01600
C4112       C  0.55105660  0.29378026  0.01019098    -0.09200
C4113       C  0.50906519  0.32188200  0.98808916     0.65100
H4114       H  0.49714215  0.30268322  0.02021037     0.10500
C4115       C  0.55404565  0.27256765  0.03974423     0.63500
H4116       H  0.56594250  0.29078407  0.00684623     0.07900
F4117       F  0.53977660  0.27881432  0.93052200    -0.19600
F4118       F  0.56719943  0.29009866  0.91802027    -0.15800
F4119       F  0.53942990  0.30611738  0.91344760    -0.19300
F4120       F  0.57717128  0.32704051  0.00924897    -0.22700
F4121       F  0.55083577  0.34545034  0.00584873    -0.24100
F4122       F  0.57878846  0.35470589  0.99293932    -0.18100
F4123       F  0.54683629  0.25404048  0.03919260    -0.20600
F4124       F  0.55296460  0.27942384  0.05837892    -0.21800
F4125       F  0.57320137  0.27194466  0.03447813    -0.19000
F4126       F  0.49081199  0.32501060  0.99530561    -0.19000
F4127       F  0.50724009  0.31323569  0.97029029    -0.22900
F4128       F  0.51786989  0.33955985  0.98585277    -0.24500
C4129       C  0.68685214  0.45624068  0.80128910    -0.11300
C4130       C  0.70432657  0.46085101  0.81025953     0.11300
C4131       C  0.70622418  0.45859277  0.83032358    -0.03100
C4132       C  0.69061625  0.45125212  0.84070535    -0.05800
C4133       C  0.67345638  0.44518822  0.83173319    -0.16600
C4134       C  0.67138801  0.44803875  0.81159220     0.02300
C4135       C  0.72055600  0.46792638  0.79834288     0.12300
C4136       C  0.72472873  0.46370377  0.84079533     0.62900
H4137       H  0.69199987  0.44976847  0.85613644     0.12300
C4138       C  0.65353516  0.44173963  0.80076870     0.55000
H4139       H  0.68571608  0.45854622  0.78593472     0.08100
C4140       C  0.73216500  0.45536257  0.78726453    -0.05700
C4141       C  0.74735593  0.46321458  0.77638060    -0.06500
C4142       C  0.75118898  0.48302120  0.77649268    -0.16000
C4143       C  0.74002484  0.49538532  0.78816639    -0.01600
C4144       C  0.72475583  0.48760608  0.79882395    -0.09200
C4145       C  0.72831765  0.43385696  0.78678478     0.65100
H4146       H  0.75578786  0.45408632  0.76700417     0.10500
C4147       C  0.74428935  0.51675752  0.78929949     0.63500
H4148       H  0.71575894  0.49688352  0.80749160     0.07900
F4149       F  0.65486182  0.44567158  0.78129824    -0.19600
F4150       F  0.63764408  0.45134024  0.80780711    -0.15800
F4151       F  0.65098626  0.42212370  0.80286906    -0.19300
F4152       F  0.72688471  0.48345158  0.84132744    -0.22700
F4153       F  0.74036385  0.45568933  0.83153404    -0.24100
F4154       F  0.72473402  0.45695819  0.85952182    -0.18100
F4155       F  0.74093764  0.52534599  0.77170625    -0.20600
F4156       F  0.76330281  0.51944846  0.79437007    -0.21800
F4157       F  0.73295184  0.52586236  0.80287754    -0.19000
F4158       F  0.74214234  0.42410438  0.77633748    -0.19000
F4159       F  0.71067652  0.43031942  0.77839074    -0.22900
F4160       F  0.72829423  0.42654789  0.80527138    -0.24500
C4161       C  0.52966054  0.42977759  0.80632421    -0.11300
C4162       C  0.53171297  0.44912154  0.80149171     0.11300
C4163       C  0.54938702  0.45854006  0.80492062    -0.03100
C4164       C  0.56483495  0.44784613  0.81245068    -0.05800
C4165       C  0.56310296  0.42816494  0.81699692    -0.16600
C4166       C  0.54492510  0.41895485  0.81391596     0.02300
C4167       C  0.51517555  0.45871125  0.79199377     0.12300
C4168       C  0.55178722  0.47986566  0.80093242     0.62900
H4169       H  0.57840352  0.45497592  0.81503953     0.12300
C4170       C  0.54116374  0.39785325  0.81832672     0.55000
H4171       H  0.51582716  0.42314869  0.80371439     0.08100
C4172       C  0.51225137  0.45709262  0.77193410    -0.05700
C4173       C  0.49687760  0.46707051  0.76359002    -0.06500
C4174       C  0.48388696  0.47780405  0.77466409    -0.16000
C4175       C  0.48567039  0.47787996  0.79492604    -0.01600
C4176       C  0.50155678  0.46844232  0.80331639    -0.09200
C4177       C  0.52525960  0.44482236  0.75938460     0.65100
H4178       H  0.49511090  0.46699813  0.74811341     0.10500
C4179       C  0.47098375  0.48794121  0.80745544     0.63500
H4180       H  0.50357119  0.46867588  0.81875183     0.07900
F4181       F  0.52260729  0.39236090  0.81373359    -0.19600
F4182       F  0.54363035  0.39437770  0.83775365    -0.15800
F4183       F  0.55352029  0.38653772  0.80763455    -0.19300
F4184       F  0.53865553  0.49016616  0.81169070    -0.22700
F4185       F  0.54875870  0.48358410  0.78166112    -0.24100
F4186       F  0.56999662  0.48632738  0.80567474    -0.18100
F4187       F  0.47544801  0.48644404  0.82679362    -0.20600
F4188       F  0.45316635  0.47962236  0.80457931    -0.21800
F4189       F  0.47006645  0.50724056  0.80276947    -0.19000
F4190       F  0.51989891  0.44547203  0.74023111    -0.19000
F4191       F  0.52431848  0.42587214  0.76528713    -0.22900
F4192       F  0.54402460  0.45114442  0.76072396    -0.24500
C4193       C  0.53780404  0.30047343  0.81905158    -0.11300
C4194       C  0.52916713  0.30980864  0.80337201     0.11300
C4195       C  0.52802529  0.33009735  0.80317816    -0.03100
C4196       C  0.53691990  0.34041481  0.81808393    -0.05800
C4197       C  0.54705466  0.33122709  0.83296964    -0.16600
C4198       C  0.54700387  0.31086495  0.83386972     0.02300
C4199       C  0.52130556  0.29802093  0.78735000     0.12300
C4200       C  0.51796019  0.34082228  0.78700149     0.62900
H4201       H  0.53655576  0.35591958  0.81790717     0.12300
C4202       C  0.55717706  0.30016289  0.84989471     0.55000
H4203       H  0.53776825  0.28490594  0.81924562     0.08100
C4204       C  0.53320557  0.28958196  0.77309684    -0.05700
C4205       C  0.52463042  0.27834158  0.75853008    -0.06500
C4206       C  0.50472996  0.27528289  0.75804914    -0.16000
C4207       C  0.49283923  0.28471092  0.77167414    -0.01600
C4208       C  0.50141259  0.29545313  0.78642252    -0.09200
C4209       C  0.55488043  0.29182904  0.77374607     0.65100
H4210       H  0.53351335  0.27074262  0.74825149     0.10500
C4211       C  0.47113058  0.28277527  0.77144743     0.63500
H4212       H  0.49254350  0.30173744  0.79757847     0.07900
F4213       F  0.55607063  0.28043182  0.84751060    -0.19600
F4214       F  0.54878209  0.30471124  0.86732926    -0.15800
F4215       F  0.57638319  0.30524789  0.85028067    -0.19300
F4216       F  0.49861900  0.33637679  0.78693279    -0.22700
F4217       F  0.52587773  0.33572740  0.76949883    -0.24100
F4218       F  0.51963393  0.36054681  0.78896585    -0.18100
F4219       F  0.46573521  0.26649117  0.78148549    -0.20600
F4220       F  0.46437839  0.28156754  0.75277666    -0.21800
F4221       F  0.46254390  0.29857703  0.77997270    -0.19000
F4222       F  0.56364154  0.28343810  0.75797514    -0.19000
F4223       F  0.56204607  0.28312565  0.79009594    -0.22900
F4224       F  0.55971572  0.31111555  0.77396962    -0.24500
C4225       C  0.11737715  0.50925016  0.26305767    -0.11300
C4226       C  0.12787318  0.49232195  0.26020553     0.11300
C4227       C  0.11779117  0.47491773  0.25679054    -0.03100
C4228       C  0.09744093  0.47519334  0.25600663    -0.05800
C4229       C  0.08681882  0.49220481  0.25888523    -0.16600
C4230       C  0.09710664  0.50964155  0.26227197     0.02300
C4231       C  0.14944196  0.49345944  0.26071275     0.12300
C4232       C  0.12857790  0.45614293  0.25411104     0.62900
H4233       H  0.08962525  0.46196205  0.25349752     0.12300
C4234       C  0.08700358  0.52885574  0.26459207     0.55000
H4235       H  0.12533846  0.52232158  0.26592900     0.08100
C4236       C  0.16026108  0.50000309  0.24480541    -0.05700
C4237       C  0.18048339  0.50063552  0.24619085    -0.06500
C4238       C  0.19057084  0.49557137  0.26312689    -0.16000
C4239       C  0.17940855  0.48968317  0.27941402    -0.01600
C4240       C  0.15912104  0.48867822  0.27773099    -0.09200
C4241       C  0.15040292  0.50675419  0.22651257     0.65100
H4242       H  0.18853184  0.50545875  0.23380792     0.10500
C4243       C  0.18838109  0.48465020  0.29868549     0.63500
H4244       H  0.15044984  0.48420764  0.28985573     0.07900
F4245       F  0.07370754  0.53134007  0.25003400    -0.19600
F4246       F  0.09977311  0.54411426  0.26373748    -0.15800
F4247       F  0.07789013  0.52958270  0.28222879    -0.19300
F4248       F  0.13889188  0.45194217  0.27055841    -0.22700
F4249       F  0.14113141  0.45767379  0.23878897    -0.24100
F4250       F  0.11627122  0.44091917  0.25051192    -0.18100
F4251       F  0.19876637  0.50016733  0.30555568    -0.20600
F4252       F  0.20021864  0.46882939  0.29668806    -0.21800
F4253       F  0.17468844  0.48011976  0.31240001    -0.19000
F4254       F  0.16345343  0.51108866  0.21213817    -0.19000
F4255       F  0.13986155  0.52314826  0.23031835    -0.22900
F4256       F  0.13823297  0.49261715  0.21964902    -0.24500
C4257       C  0.72675810  0.61504608  0.00592952    -0.11300
C4258       C  0.74302452  0.62585879  0.00071865     0.11300
C4259       C  0.76044508  0.61582652  0.99706562    -0.03100
C4260       C  0.76079400  0.59542088  0.99841115    -0.05800
C4261       C  0.74429191  0.58454899  0.00279201    -0.16600
C4262       C  0.72695144  0.59464525  0.00675044     0.02300
C4263       C  0.74126917  0.64759386  0.99942090     0.12300
C4264       C  0.77855295  0.62659270  0.99136610     0.62900
H4265       H  0.77395028  0.58768684  0.99545385     0.12300
C4266       C  0.70868289  0.58399248  0.01211744     0.55000
H4267       H  0.71364686  0.62281451  0.00900100     0.08100
C4268       C  0.73327907  0.65699903  0.98312923    -0.05700
C4269       C  0.73177267  0.67737586  0.98298825    -0.06500
C4270       C  0.73774622  0.68877930  0.99859614    -0.16000
C4271       C  0.74568104  0.67940318  0.01489289    -0.01600
C4272       C  0.74705930  0.65901056  0.01513088    -0.09200
C4273       C  0.72634618  0.64552059  0.96589340     0.65100
H4274       H  0.72592426  0.68464568  0.97054349     0.10500
C4275       C  0.75316465  0.69101396  0.03174100     0.63500
H4276       H  0.75292099  0.65176995  0.02758622     0.07900
F4277       F  0.70198298  0.57376755  0.99644857    -0.19600
F4278       F  0.69429914  0.59645221  0.01789432    -0.15800
F4279       F  0.71229375  0.57146233  0.02711992    -0.19300
F4280       F  0.78343731  0.63968624  0.00548916    -0.22700
F4281       F  0.77558860  0.63630052  0.97430374    -0.24100
F4282       F  0.79395320  0.61428496  0.98880782    -0.18100
F4283       F  0.73858366  0.70217251  0.03922750    -0.20600
F4284       F  0.76793254  0.70281820  0.02563294    -0.21800
F4285       F  0.76010464  0.67938236  0.04630663    -0.19000
F4286       F  0.71946470  0.65730946  0.95143135    -0.19000
F4287       F  0.71167709  0.63330316  0.97136689    -0.22900
F4288       F  0.74123632  0.63475476  0.95841854    -0.24500
C4289       C  0.70128950  0.49312647  0.97529755    -0.11300
C4290       C  0.70899555  0.48819691  0.95735718     0.11300
C4291       C  0.72283144  0.50045499  0.94876676    -0.03100
C4292       C  0.72971092  0.51638619  0.95936425    -0.05800
C4293       C  0.72289570  0.52053665  0.97793279    -0.16600
C4294       C  0.70801343  0.50902764  0.98580396     0.02300
C4295       C  0.70092778  0.47096806  0.94745948     0.12300
C4296       C  0.73065136  0.49642559  0.92877215     0.62900
H4297       H  0.74127102  0.52511288  0.95366454     0.12300
C4298       C  0.69885986  0.51254781  0.00528589     0.55000
H4299       H  0.69005416  0.48417894  0.98135960     0.08100
C4300       C  0.70630130  0.45187792  0.95223191    -0.05700
C4301       C  0.69639887  0.43640219  0.94357832    -0.06500
C4302       C  0.68170225  0.43942938  0.93011597    -0.16000
C4303       C  0.67654155  0.45865904  0.92520763    -0.01600
C4304       C  0.68612251  0.47400269  0.93425269    -0.09200
C4305       C  0.72248429  0.44784205  0.96627468     0.65100
H4306       H  0.70020679  0.42173105  0.94710762     0.10500
C4307       C  0.66045980  0.46325436  0.91116073     0.63500
H4308       H  0.68201368  0.48870899  0.93122814     0.07900
F4309       F  0.70176390  0.49666157  0.01688342    -0.19600
F4310       F  0.67932300  0.51516710  0.00285525    -0.15800
F4311       F  0.70605218  0.52855709  0.01460250    -0.19300
F4312       F  0.71587458  0.49647950  0.91551681    -0.22700
F4313       F  0.73953412  0.47867836  0.92841735    -0.24100
F4314       F  0.74392465  0.51013979  0.92313223    -0.18100
F4315       F  0.64385190  0.45399510  0.91681917    -0.20600
F4316       F  0.66548886  0.45746613  0.89282617    -0.21800
F4317       F  0.65654606  0.48276413  0.91040501    -0.19000
F4318       F  0.72551202  0.42830617  0.96863239    -0.19000
F4319       F  0.71820799  0.45557452  0.98406052    -0.22900
F4320       F  0.73933714  0.45591275  0.95957725    -0.24500
C4321       C  0.95499437  0.29386393  0.04300579    -0.11300
C4322       C  0.95264994  0.30183464  0.02453916     0.11300
C4323       C  0.94033353  0.31770009  0.02194309    -0.03100
C4324       C  0.93047774  0.32490263  0.03792329    -0.05800
C4325       C  0.93220622  0.31677015  0.05641236    -0.16600
C4326       C  0.94511414  0.30125699  0.05919304     0.02300
C4327       C  0.96255164  0.29294152  0.00784442     0.12300
C4328       C  0.93750792  0.32699748  0.00232099     0.62900
H4329       H  0.92107693  0.33713380  0.03597291     0.12300
C4330       C  0.94822629  0.29239536  0.07887518     0.55000
H4331       H  0.96455492  0.28169442  0.04457136     0.08100
C4332       C  0.98164015  0.29773606  0.00284024    -0.05700
C4333       C  0.98984444  0.28900980  0.98651128    -0.06500
C4334       C  0.97976695  0.27533734  0.97551457    -0.16000
C4335       C  0.96055621  0.27085972  0.98038399    -0.01600
C4336       C  0.95220779  0.27985913  0.99647199    -0.09200
C4337       C  0.99362866  0.31103998  0.01538392     0.65100
H4338       H  0.00480413  0.29160534  0.98309448     0.10500
C4339       C  0.94936221  0.25582290  0.96924836     0.63500
H4340       H  0.93761241  0.27642008  0.00063296     0.07900
F4341       F  0.96051465  0.27677939  0.07809561    -0.19600
F4342       F  0.93089277  0.28618984  0.08635455    -0.15800
F4343       F  0.95624116  0.30589267  0.09109060    -0.19300
F4344       F  0.93039831  0.31369589  0.98938987    -0.22700
F4345       F  0.95479247  0.33399647  0.99553643    -0.24100
F4346       F  0.92469280  0.34217609  0.00305667    -0.18100
F4347       F  0.95794278  0.23803305  0.97143037    -0.20600
F4348       F  0.94910192  0.26064159  0.94996736    -0.21800
F4349       F  0.93054923  0.25443226  0.97554710    -0.19000
F4350       F  0.01147066  0.31463416  0.00738194    -0.19000
F4351       F  0.99636884  0.30267377  0.03319492    -0.22900
F4352       F  0.98447393  0.32847734  0.01785614    -0.24500
C4353       C  0.96331347  0.29816106  0.18511677    -0.11300
C4354       C  0.95582209  0.30357556  0.20310560     0.11300
C4355       C  0.94322652  0.31944061  0.20431140    -0.03100
C4356       C  0.93778996  0.32879445  0.18723428    -0.05800
C4357       C  0.94478063  0.32312800  0.16906600    -0.16600
C4358       C  0.95815055  0.30782018  0.16799687     0.02300
C4359       C  0.96198808  0.29277787  0.22054140     0.12300
C4360       C  0.93570639  0.32656278  0.22358096     0.62900
H4361       H  0.92781558  0.34071123  0.18796715     0.12300
C4362       C  0.96751633  0.30227193  0.14911160     0.55000
H4363       H  0.97333780  0.28627402  0.18463620     0.08100
C4364       C  0.95296756  0.27543054  0.22626700    -0.05700
C4365       C  0.96052457  0.26529588  0.24207716    -0.06500
C4366       C  0.97683267  0.27179096  0.25205131    -0.16000
C4367       C  0.98529695  0.28953011  0.24684508    -0.01600
C4368       C  0.97766420  0.29980643  0.23113921    -0.09200
C4369       C  0.93621097  0.26702276  0.21504113     0.65100
H4370       H  0.95465315  0.25136702  0.24586609     0.10500
C4371       C  0.00278631  0.29707576  0.25741618     0.63500
H4372       H  0.98429238  0.31313474  0.22655376     0.07900
F4373       F  0.95398649  0.29439019  0.13689041    -0.19600
F4374       F  0.98198051  0.28888653  0.15171458    -0.15800
F4375       F  0.97552324  0.31838197  0.14060835    -0.19300
F4376       F  0.95085614  0.33250278  0.23496677    -0.22700
F4377       F  0.92593329  0.31203548  0.23295433    -0.24100
F4378       F  0.92327511  0.34193320  0.22147141    -0.18100
F4379       F  0.01780198  0.28418242  0.25575218    -0.20600
F4380       F  0.99833386  0.29947622  0.27664066    -0.21800
F4381       F  0.00884105  0.31461042  0.25019215    -0.19000
F4382       F  0.92856614  0.25100451  0.22406555    -0.19000
F4383       F  0.94232449  0.26161887  0.19692736    -0.22900
F4384       F  0.92170548  0.28041797  0.21318706    -0.24500
C4385       C  0.96094876  0.43615504  0.21144156    -0.11300
C4386       C  0.97800390  0.43942354  0.20097867     0.11300
C4387       C  0.97892124  0.43367594  0.18150106    -0.03100
C4388       C  0.96254646  0.42547900  0.17298410    -0.05800
C4389       C  0.94543911  0.42227407  0.18327042    -0.16600
C4390       C  0.94457021  0.42757698  0.20289201     0.02300
C4391       C  0.99423812  0.44995843  0.21039674     0.12300
C4392       C  0.99723681  0.43577385  0.16980563     0.62900
H4393       H  0.96312540  0.42095621  0.15808835     0.12300
C4394       C  0.92676885  0.42357858  0.21478391     0.55000
H4395       H  0.96058465  0.44046344  0.22640156     0.08100
C4396       C  0.99388216  0.47020875  0.21232823    -0.05700
C4397       C  0.00885971  0.47934383  0.22236789    -0.06500
C4398       C  0.02440158  0.46910011  0.23023298    -0.16000
C4399       C  0.02562031  0.44904629  0.22691257    -0.01600
C4400       C  0.01024666  0.43969903  0.21733293    -0.09200
C4401       C  0.97769104  0.48216499  0.20384589     0.65100
H4402       H  0.00820661  0.49471592  0.22480137     0.10500
C4403       C  0.04286201  0.43765294  0.23371060     0.63500
H4404       H  0.01047490  0.42425310  0.21540102     0.07900
F4405       F  0.91119032  0.43302473  0.20690770    -0.19600
F4406       F  0.92888011  0.42976329  0.23358995    -0.15800
F4407       F  0.92312202  0.40402183  0.21502902    -0.19300
F4408       F  0.01144352  0.42434436  0.17762731    -0.22700
F4409       F  0.00332829  0.45468642  0.16984300    -0.24100
F4410       F  0.99464539  0.43020874  0.15086389    -0.18100
F4411       F  0.04482375  0.43935336  0.25342170    -0.20600
F4412       F  0.05923525  0.44463439  0.22486150    -0.21800
F4413       F  0.04119084  0.41832203  0.22925057    -0.19000
F4414       F  0.98044043  0.50164012  0.20691860    -0.19000
F4415       F  0.96037318  0.47707914  0.21209899    -0.22900
F4416       F  0.97666774  0.47915941  0.18422939    -0.24500
C4417       C  0.80356459  0.31144800  0.04025487    -0.11300
C4418       C  0.81479188  0.29553467  0.03490552     0.11300
C4419       C  0.83500391  0.29727722  0.03524954    -0.03100
C4420       C  0.84326201  0.31441382  0.04228078    -0.05800
C4421       C  0.83216753  0.33019084  0.04874339    -0.16600
C4422       C  0.81179812  0.32885474  0.04699111     0.02300
C4423       C  0.80489694  0.27760272  0.02811671     0.12300
C4424       C  0.84787122  0.28113126  0.02810146     0.62900
H4425       H  0.85874771  0.31546713  0.04282690     0.12300
C4426       C  0.79863142  0.34547574  0.05211572     0.55000
H4427       H  0.78811766  0.31001446  0.03916965     0.08100
C4428       C  0.79596055  0.26439948  0.04090823    -0.05700
C4429       C  0.78455871  0.24939938  0.03322786    -0.06500
C4430       C  0.78261158  0.24679276  0.01331807    -0.16000
C4431       C  0.79344617  0.25850851  0.00072366    -0.01600
C4432       C  0.80393828  0.27410203  0.00827365    -0.09200
C4433       C  0.79824428  0.26627999  0.06252567     0.65100
H4434       H  0.77617621  0.24031482  0.04270134     0.10500
C4435       C  0.79351859  0.25470409  0.97927815     0.63500
H4436       H  0.81095381  0.28409043  0.99861019     0.07900
F4437       F  0.80025772  0.34974208  0.07146406    -0.19600
F4438       F  0.77955143  0.34123235  0.04843451    -0.15800
F4439       F  0.80346786  0.36144100  0.04127679    -0.19300
F4440       F  0.84570854  0.27903239  0.00846475    -0.22700
F4441       F  0.84309189  0.26402649  0.03702194    -0.24100
F4442       F  0.86706550  0.28478868  0.03177283    -0.18100
F4443       F  0.77618348  0.26019806  0.97134833    -0.20600
F4444       F  0.79636534  0.23529563  0.97594059    -0.21800
F4445       F  0.80810429  0.26471142  0.97016180    -0.19000
F4446       F  0.78989520  0.25098415  0.07216794    -0.19000
F4447       F  0.78970775  0.28304312  0.06886606    -0.22900
F4448       F  0.81752333  0.26665250  0.06723765    -0.24500
C4449       C  0.79945310  0.45628816  0.04711318    -0.11300
C4450       C  0.80664303  0.47507188  0.04950711     0.11300
C4451       C  0.82301140  0.47794078  0.06120088    -0.03100
C4452       C  0.83147452  0.46192781  0.07018948    -0.05800
C4453       C  0.82429706  0.44303054  0.06807218    -0.16600
C4454       C  0.80819273  0.44010898  0.05588168     0.02300
C4455       C  0.79630845  0.49153219  0.04019987     0.12300
C4456       C  0.83155940  0.49785006  0.06426498     0.62900
H4457       H  0.84396587  0.46417881  0.07917083     0.12300
C4458       C  0.80017239  0.42018295  0.05212320     0.55000
H4459       H  0.78682895  0.45442249  0.03822170     0.08100
C4460       C  0.79832983  0.49592272  0.02040228    -0.05700
C4461       C  0.78768036  0.51133776  0.01262187    -0.06500
C4462       C  0.77466583  0.52211709  0.02372477    -0.16000
C4463       C  0.77244709  0.51750206  0.04344605    -0.01600
C4464       C  0.78355063  0.50246800  0.05140499    -0.09200
C4465       C  0.81109852  0.48392633  0.00736921     0.65100
H4466       H  0.78856183  0.51440720  0.99737728     0.10500
C4467       C  0.75772592  0.52776844  0.05577086     0.63500
H4468       H  0.78191005  0.49866336  0.06641334     0.07900
F4469       F  0.78354750  0.42080917  0.04123310    -0.19600
F4470       F  0.79586958  0.41118679  0.06932130    -0.15800
F4471       F  0.81358653  0.40943161  0.04216441    -0.19300
F4472       F  0.81831871  0.50966601  0.07314576    -0.22700
F4473       F  0.83666870  0.50576860  0.04677827    -0.24100
F4474       F  0.84781020  0.49732068  0.07573064    -0.18100
F4475       F  0.73963357  0.52560534  0.04785613    -0.20600
F4476       F  0.76221500  0.54710781  0.05674475    -0.21800
F4477       F  0.75721996  0.52053438  0.07431392    -0.19000
F4478       F  0.81152135  0.49103636  0.98878357    -0.19000
F4479       F  0.80432563  0.46525457  0.00657472    -0.22900
F4480       F  0.82967834  0.48381424  0.01432966    -0.24500
C4481       C  0.78568574  0.49128614  0.19600359    -0.11300
C4482       C  0.78500547  0.47128892  0.19368511     0.11300
C4483       C  0.76887394  0.46092133  0.20065725    -0.03100
C4484       C  0.75425713  0.47101840  0.21044574    -0.05800
C4485       C  0.75548339  0.49091849  0.21352125    -0.16600
C4486       C  0.77096258  0.50136547  0.20539163     0.02300
C4487       C  0.80183812  0.46178870  0.18445821     0.12300
C4488       C  0.76743325  0.43926278  0.19838429     0.62900
H4489       H  0.74243733  0.46325082  0.21694905     0.12300
C4490       C  0.77247730  0.52305636  0.20721434     0.55000
H4491       H  0.79818414  0.49899241  0.19080108     0.08100
C4492       C  0.80494697  0.46265018  0.16441021    -0.05700
C4493       C  0.82163353  0.45423615  0.15677432    -0.06500
C4494       C  0.83548489  0.44500390  0.16837494    -0.16000
C4495       C  0.83244668  0.44451585  0.18864905    -0.01600
C4496       C  0.81567922  0.45308382  0.19625241    -0.09200
C4497       C  0.79070903  0.47249213  0.15108328     0.65100
H4498       H  0.82392618  0.45490148  0.14140478     0.10500
C4499       C  0.84653393  0.43500612  0.20234735     0.63500
H4500       H  0.81319465  0.45315597  0.21162250     0.07900
F4501       F  0.78403344  0.53065093  0.19289408    -0.19600
F4502       F  0.78032451  0.52781186  0.22484236    -0.15800
F4503       F  0.75453787  0.53141595  0.20553429    -0.19300
F4504       F  0.78215494  0.43044709  0.20834348    -0.22700
F4505       F  0.76870627  0.43436869  0.17916932    -0.24100
F4506       F  0.75020408  0.43220320  0.20540369    -0.18100
F4507       F  0.86412785  0.44419171  0.20126577    -0.20600
F4508       F  0.84862560  0.41578529  0.19766199    -0.21800
F4509       F  0.84040478  0.43594787  0.22125983    -0.19000
F4510       F  0.79566962  0.47031799  0.13193048    -0.19000
F4511       F  0.79011070  0.49195320  0.15502830    -0.22900
F4512       F  0.77259561  0.46475300  0.15360938    -0.24500
C4513       C  0.96529764  0.66785082  0.29569384    -0.11300
C4514       C  0.96353838  0.68761867  0.29271952     0.11300
C4515       C  0.95401141  0.69886767  0.30680456    -0.03100
C4516       C  0.94626684  0.68974682  0.32332222    -0.05800
C4517       C  0.94784465  0.66974309  0.32639784    -0.16600
C4518       C  0.95819618  0.65868554  0.31235804     0.02300
C4519       C  0.97248855  0.69620709  0.27502027     0.12300
C4520       C  0.95198280  0.72045606  0.30425121     0.62900
H4521       H  0.93855487  0.69825185  0.33381336     0.12300
C4522       C  0.96222271  0.63728617  0.31459105     0.55000
H4523       H  0.97246378  0.65956938  0.28464018     0.08100
C4524       C  0.99248216  0.69988118  0.27382878    -0.05700
C4525       C  0.99958744  0.71039521  0.25802692    -0.06500
C4526       C  0.98757219  0.71689870  0.24313792    -0.16000
C4527       C  0.96802130  0.71128393  0.24322130    -0.01600
C4528       C  0.96076686  0.70099862  0.25924261    -0.09200
C4529       C  0.00622750  0.69308869  0.28936643     0.65100
H4530       H  0.01457289  0.71457655  0.25765713     0.10500
C4531       C  0.95480282  0.71688730  0.22686670     0.63500
H4532       H  0.94568028  0.69728371  0.25994772     0.07900
F4533       F  0.97059318  0.63382036  0.33229475    -0.19600
F4534       F  0.97473172  0.63050193  0.30068271    -0.15800
F4535       F  0.94534977  0.62695569  0.31282129    -0.19300
F4536       F  0.94113434  0.72429831  0.28806702    -0.22700
F4537       F  0.96991475  0.72876600  0.30216161    -0.24100
F4538       F  0.94304299  0.72897663  0.31984635    -0.18100
F4539       F  0.93639811  0.70983974  0.22950781    -0.20600
F4540       F  0.96184533  0.70947051  0.20981376    -0.21800
F4541       F  0.95376993  0.73669716  0.22547934    -0.19000
F4542       F  0.02483004  0.69929062  0.28603543    -0.19000
F4543       F  0.00643039  0.67322245  0.28984415    -0.22900
F4544       F  0.00053986  0.70000708  0.30710795    -0.24500
C4545       C  0.94993401  0.70819957  0.45077968    -0.11300
C4546       C  0.93958404  0.71239390  0.46764261     0.11300
C4547       C  0.91971049  0.70833906  0.46827514    -0.03100
C4548       C  0.91114503  0.69910862  0.45242053    -0.05800
C4549       C  0.92168481  0.69340364  0.43599576    -0.16600
C4550       C  0.94140215  0.69864879  0.43491794     0.02300
C4551       C  0.94976594  0.72174386  0.48413216     0.12300
C4552       C  0.90762772  0.71333035  0.48582201     0.62900
H4553       H  0.89599193  0.69571028  0.45306909     0.12300
C4554       C  0.95359680  0.69376668  0.41751872     0.55000
H4555       H  0.96498745  0.71208351  0.45038034     0.08100
C4556       C  0.96111430  0.71121705  0.49742601    -0.05700
C4557       C  0.97120186  0.72130558  0.51188031    -0.06500
C4558       C  0.96987564  0.74133370  0.51368959    -0.16000
C4559       C  0.95754460  0.75166600  0.50122229    -0.01600
C4560       C  0.94808103  0.74172934  0.48631687    -0.09200
C4561       C  0.96273446  0.68947493  0.49627289     0.65100
H4562       H  0.98089354  0.71372192  0.52139521     0.10500
C4563       C  0.95395412  0.77301560  0.50409688     0.63500
H4564       H  0.93924241  0.74951573  0.47615945     0.07900
F4565       F  0.97226411  0.70034861  0.41945821    -0.19600
F4566       F  0.94586156  0.70224449  0.40129236    -0.15800
F4567       F  0.95425087  0.67403887  0.41507711    -0.19300
F4568       F  0.90791079  0.73294391  0.48895321    -0.22700
F4569       F  0.91479339  0.70414344  0.50189337    -0.24100
F4570       F  0.88865914  0.70779435  0.48359713    -0.18100
F4571       F  0.97073653  0.78336435  0.50174487    -0.20600
F4572       F  0.94697868  0.77603364  0.52247081    -0.21800
F4573       F  0.94058262  0.78005221  0.49116551    -0.19000
F4574       F  0.97461860  0.68220197  0.51046816    -0.19000
F4575       F  0.97016811  0.68409144  0.47866594    -0.22900
F4576       F  0.94482419  0.68122979  0.49852183    -0.24500
C4577       C  0.97830893  0.55256902  0.32769800    -0.11300
C4578       C  0.97628810  0.54418673  0.30956715     0.11300
C4579       C  0.95855341  0.54596168  0.29966452    -0.03100
C4580       C  0.94382284  0.55739957  0.30779057    -0.05800
C4581       C  0.94636519  0.56690127  0.32544504    -0.16600
C4582       C  0.96372404  0.56387694  0.33590524     0.02300
C4583       C  0.99305611  0.53344239  0.30157821     0.12300
C4584       C  0.95534933  0.53591283  0.28055948     0.62900
H4585       H  0.93042128  0.55942452  0.30017921     0.12300
C4586       C  0.96685964  0.57203093  0.35596836     0.55000
H4587       H  0.99172136  0.55041988  0.33526699     0.08100
C4588       C  0.00861978  0.54289056  0.29234622    -0.05700
C4589       C  0.02327760  0.53169162  0.28390218    -0.06500
C4590       C  0.02303294  0.51156667  0.28503067    -0.16000
C4591       C  0.00868390  0.50235605  0.29617533    -0.01600
C4592       C  0.99372769  0.51344830  0.30403391    -0.09200
C4593       C  0.00956564  0.56466542  0.29122514     0.65100
H4594       H  0.03451455  0.53850256  0.27555620     0.10500
C4595       C  0.00863576  0.48075225  0.29920882     0.63500
H4596       H  0.98219372  0.50646784  0.31183133     0.07900
F4597       F  0.96915024  0.59175465  0.35513317    -0.19600
F4598       F  0.98311418  0.56449123  0.36458379    -0.15800
F4599       F  0.95133728  0.56756254  0.36752596    -0.19300
F4600       F  0.95695234  0.51624600  0.28294973    -0.22700
F4601       F  0.96889716  0.54199805  0.26736404    -0.24100
F4602       F  0.93731621  0.53971585  0.27311839    -0.18100
F4603       F  0.99903469  0.47594534  0.31596110    -0.20600
F4604       F  0.02720526  0.47384458  0.30074929    -0.21800
F4605       F  0.99959573  0.47186291  0.28390143    -0.19000
F4606       F  0.02551198  0.57089340  0.28109350    -0.19000
F4607       F  0.01064133  0.57227226  0.30955779    -0.22900
F4608       F  0.99336663  0.57170916  0.28218138    -0.24500
C4609       C  0.79297830  0.54590645  0.45131704    -0.11300
C4610       C  0.79921282  0.52673848  0.44942634     0.11300
C4611       C  0.81533084  0.52267832  0.43783104    -0.03100
C4612       C  0.82489123  0.53794338  0.42875134    -0.05800
C4613       C  0.81870510  0.55723933  0.43018423    -0.16600
C4614       C  0.80245925  0.56133343  0.44188235     0.02300
C4615       C  0.78919720  0.51097153  0.46006742     0.12300
C4616       C  0.82228643  0.50215570  0.43481748     0.62900
H4617       H  0.83736900  0.53468594  0.42008071     0.12300
C4618       C  0.79496547  0.58166613  0.44423259     0.55000
H4619       H  0.78056436  0.54865725  0.46027288     0.08100
C4620       C  0.79351971  0.50678332  0.47951435    -0.05700
C4621       C  0.78496114  0.49057136  0.48818982    -0.06500
C4622       C  0.77211459  0.47860121  0.47816390    -0.16000
C4623       C  0.76782464  0.48279807  0.45873403    -0.01600
C4624       C  0.77647799  0.49894198  0.44997290    -0.09200
C4625       C  0.80660708  0.51979437  0.49120501     0.65100
H4626       H  0.78739510  0.48770238  0.50330221     0.10500
C4627       C  0.75366433  0.47054995  0.44759395     0.63500
H4628       H  0.77332587  0.50239097  0.43512479     0.07900
F4629       F  0.80869458  0.59288171  0.45322628    -0.19600
F4630       F  0.77844078  0.58224078  0.45528220    -0.15800
F4631       F  0.79071059  0.58938310  0.42641125    -0.19300
F4632       F  0.80845077  0.49173547  0.42508210    -0.22700
F4633       F  0.82585253  0.49348135  0.45233623    -0.24100
F4634       F  0.83902944  0.50145216  0.42412579    -0.18100
F4635       F  0.75201291  0.47648915  0.42867201    -0.20600
F4636       F  0.73572918  0.47164311  0.45606020    -0.21800
F4637       F  0.75974763  0.45163001  0.44764314    -0.19000
F4638       F  0.81007034  0.51242837  0.50935871    -0.19000
F4639       F  0.79812122  0.53763454  0.49330563    -0.22900
F4640       F  0.82409091  0.52198637  0.48204203    -0.24500
C4641       C  0.79455389  0.68422532  0.45201833    -0.11300
C4642       C  0.80396151  0.70180775  0.45516488     0.11300
C4643       C  0.82408031  0.70286176  0.45284366    -0.03100
C4644       C  0.83402288  0.68640348  0.44668100    -0.05800
C4645       C  0.82467162  0.66886494  0.44245465    -0.16600
C4646       C  0.80442550  0.66768746  0.44551453     0.02300
C4647       C  0.79242307  0.71878702  0.46137334     0.12300
C4648       C  0.83505620  0.72138872  0.45665162     0.62900
H4649       H  0.84940979  0.68738078  0.44482663     0.12300
C4650       C  0.79300449  0.64942020  0.44174838     0.55000
H4651       H  0.77919425  0.68372515  0.45439364     0.08100
C4652       C  0.78132836  0.72982063  0.44829630    -0.05700
C4653       C  0.77024597  0.74521697  0.45543879    -0.06500
C4654       C  0.77011091  0.74990996  0.47503282    -0.16000
C4655       C  0.78172233  0.73934340  0.48795692    -0.01600
C4656       C  0.79254097  0.72377421  0.48091150    -0.09200
C4657       C  0.78090882  0.72515368  0.42697607     0.65100
H4658       H  0.76089890  0.75319967  0.44589913     0.10500
C4659       C  0.78269476  0.74463840  0.50909998     0.63500
H4660       H  0.80105890  0.71516280  0.49067370     0.07900
F4661       F  0.79372685  0.64488267  0.42239601    -0.19600
F4662       F  0.77386743  0.65140418  0.44675646    -0.15800
F4663       F  0.80042833  0.63443537  0.45247912    -0.19300
F4664       F  0.83391720  0.72606660  0.47592322    -0.22700
F4665       F  0.82737462  0.73619499  0.44587937    -0.24100
F4666       F  0.85429210  0.71976512  0.45188998    -0.18100
F4667       F  0.76481531  0.74269673  0.51751343    -0.20600
F4668       F  0.78875459  0.76348965  0.51086877    -0.21800
F4669       F  0.79545085  0.73309199  0.51906333    -0.19000
F4670       F  0.77015980  0.73838481  0.41672832    -0.19000
F4671       F  0.77290360  0.70718765  0.42412684    -0.22900
F4672       F  0.79935320  0.72530511  0.41964776    -0.24500
C4673       C  0.80365635  0.53254906  0.33088220    -0.11300
C4674       C  0.80244872  0.53557885  0.31107266     0.11300
C4675       C  0.81813667  0.54411691  0.30128478    -0.03100
C4676       C  0.83418884  0.55031371  0.31200496    -0.05800
C4677       C  0.83526342  0.54791281  0.33207875    -0.16600
C4678       C  0.81998683  0.53791078  0.34154844     0.02300
C4679       C  0.78475234  0.52921963  0.30082146     0.12300
C4680       C  0.81790314  0.54669702  0.27958445     0.62900
H4681       H  0.84577099  0.55774291  0.30474903     0.12300
C4682       C  0.82052001  0.53262447  0.36274950     0.55000
H4683       H  0.79146198  0.52603476  0.33803461     0.08100
C4684       C  0.78121075  0.50958952  0.29666046    -0.05700
C4685       C  0.76556035  0.50486505  0.28479787    -0.06500
C4686       C  0.75383059  0.51905410  0.27658663    -0.16000
C4687       C  0.75689863  0.53857952  0.28133288    -0.01600
C4688       C  0.77194428  0.54328014  0.29406360    -0.09200
C4689       C  0.79434909  0.49375609  0.30396962     0.65100
H4690       H  0.76307819  0.49002498  0.28075134     0.10500
C4691       C  0.74536342  0.55437176  0.27176486     0.63500
H4692       H  0.77468413  0.55815088  0.29778606     0.07900
F4693       F  0.80670956  0.51901285  0.36731708    -0.19600
F4694       F  0.81701590  0.54873322  0.37382149    -0.15800
F4695       F  0.83821079  0.52490046  0.36741140    -0.19300
F4696       F  0.80384986  0.55971315  0.27441934    -0.22700
F4697       F  0.81423180  0.52926024  0.27073932    -0.24100
F4698       F  0.83529437  0.55349781  0.27274900    -0.18100
F4699       F  0.72605583  0.55178782  0.27558963    -0.20600
F4700       F  0.74827804  0.55378958  0.25209664    -0.21800
F4701       F  0.75066925  0.57243067  0.27827538    -0.19000
F4702       F  0.78960000  0.47601141  0.29627513    -0.19000
F4703       F  0.79291233  0.49241931  0.32373530    -0.22900
F4704       F  0.81317723  0.49769402  0.29901939    -0.24500
C4705       C  0.54802168  0.54279027  0.69910732    -0.11300
C4706       C  0.53041003  0.55243766  0.69724117     0.11300
C4707       C  0.52966007  0.57009131  0.68727673    -0.03100
C4708       C  0.54670938  0.57746993  0.67939416    -0.05800
C4709       C  0.56456507  0.56793804  0.68112293    -0.16600
C4710       C  0.56516116  0.55007796  0.69100251     0.02300
C4711       C  0.51315155  0.54424357  0.70682291     0.12300
C4712       C  0.51088692  0.58104749  0.68488022     0.62900
H4713       H  0.54605616  0.59089709  0.67156429     0.12300
C4714       C  0.58359371  0.53868760  0.69306084     0.55000
H4715       H  0.54816932  0.52936356  0.70698749     0.08100
C4716       C  0.50228686  0.52905498  0.69866343    -0.05700
C4717       C  0.48675667  0.52140936  0.70922486    -0.06500
C4718       C  0.48216528  0.52831393  0.72762691    -0.16000
C4719       C  0.49260603  0.54394407  0.73540605    -0.01600
C4720       C  0.50799565  0.55165119  0.72484461    -0.09200
C4721       C  0.50786383  0.52016397  0.67951650     0.65100
H4722       H  0.47903361  0.50898849  0.70384304     0.10500
C4723       C  0.48768052  0.55207970  0.75505151     0.63500
H4724       H  0.51654796  0.56322139  0.73082728     0.07900
F4725       F  0.58917421  0.53186749  0.67523605    -0.19600
F4726       F  0.58134106  0.52306647  0.70518375    -0.15800
F4727       F  0.59791579  0.55022431  0.70062238    -0.19300
F4728       F  0.50351091  0.58594289  0.70265710    -0.22700
F4729       F  0.49765511  0.56976147  0.67527158    -0.24100
F4730       F  0.51331938  0.59785376  0.67449656    -0.18100
F4731       F  0.49082869  0.53841580  0.76913006    -0.20600
F4732       F  0.46856350  0.55742239  0.75535011    -0.21800
F4733       F  0.49867120  0.56809143  0.75943174    -0.19000
F4734       F  0.49427781  0.50705117  0.67322081    -0.19000
F4735       F  0.52519485  0.51069210  0.68141237    -0.22900
F4736       F  0.50968548  0.53423550  0.66560909    -0.24500
C4737       C  0.68576072  0.69134098  0.53484161    -0.11300
C4738       C  0.67517631  0.70737407  0.52859981     0.11300
C4739       C  0.65488376  0.70660163  0.52907249    -0.03100
C4740       C  0.64593155  0.69004090  0.53645656    -0.05800
C4741       C  0.65642111  0.67450399  0.54413820    -0.16600
C4742       C  0.67679082  0.67502746  0.54305457     0.02300
C4743       C  0.68571169  0.72438383  0.52073893     0.12300
C4744       C  0.64266805  0.72346488  0.52247191     0.62900
H4745       H  0.63040751  0.68947226  0.53705452     0.12300
C4746       C  0.68908581  0.65904347  0.55133375     0.55000
H4747       H  0.70125523  0.69200247  0.53373349     0.08100
C4748       C  0.69515416  0.73809144  0.53259173    -0.05700
C4749       C  0.70575990  0.75307315  0.52381315    -0.06500
C4750       C  0.70724004  0.75461637  0.50373695    -0.16000
C4751       C  0.69680062  0.74155826  0.49204601    -0.01600
C4752       C  0.68671617  0.72637368  0.50073845    -0.09200
C4753       C  0.69470416  0.73644751  0.55435578     0.65100
H4754       H  0.71419970  0.76281344  0.53256453     0.10500
C4755       C  0.69695692  0.74246241  0.47028407     0.63500
H4756       H  0.67968471  0.71572733  0.49176487     0.07900
F4757       F  0.70849860  0.66275596  0.54916392    -0.19600
F4758       F  0.68506581  0.64192454  0.54203747    -0.15800
F4759       F  0.68538316  0.65709944  0.57077811    -0.19300
F4760       F  0.64559975  0.72688689  0.50313537    -0.22700
F4761       F  0.64751788  0.73975035  0.53279277    -0.24100
F4762       F  0.62325578  0.72006418  0.52516021    -0.18100
F4763       F  0.70984098  0.72909472  0.46324208    -0.20600
F4764       F  0.70196808  0.76053237  0.46365540    -0.21800
F4765       F  0.67885478  0.73823937  0.46319517    -0.19000
F4766       F  0.70428062  0.75154998  0.56312042    -0.19000
F4767       F  0.70341802  0.71954543  0.56005442    -0.22900
F4768       F  0.67592389  0.73652656  0.56076814    -0.24500
C4769       C  0.69694372  0.54587296  0.53895887    -0.11300
C4770       C  0.69350057  0.52822178  0.54823553     0.11300
C4771       C  0.68205384  0.52801828  0.56502927    -0.03100
C4772       C  0.67475630  0.54554796  0.57214751    -0.05800
C4773       C  0.67794510  0.56334829  0.56288065    -0.16600
C4774       C  0.68901022  0.56341466  0.54568818     0.02300
C4775       C  0.70235411  0.51022531  0.54025840     0.12300
C4776       C  0.67714246  0.50925561  0.57513693     0.62900
H4777       H  0.66601776  0.54536613  0.58500866     0.12300
C4778       C  0.69250891  0.58174438  0.53442502     0.55000
H4779       H  0.70579224  0.54572636  0.52616621     0.08100
C4780       C  0.69479247  0.50059394  0.52391156    -0.05700
C4781       C  0.70451408  0.48434253  0.51661543    -0.06500
C4782       C  0.72163954  0.47772043  0.52485558    -0.16000
C4783       C  0.72893638  0.48696039  0.54144175    -0.01600
C4784       C  0.71908594  0.50301042  0.54898486    -0.09200
C4785       C  0.67722342  0.50810111  0.51344354     0.65100
H4786       H  0.69964720  0.47759253  0.50344620     0.10500
C4787       C  0.74767622  0.48033160  0.55040868     0.63500
H4788       H  0.72482965  0.51056843  0.56133113     0.07900
F4789       F  0.70525640  0.57891102  0.51940865    -0.19600
F4790       F  0.70008780  0.59574125  0.54634910    -0.15800
F4791       F  0.67536958  0.58814453  0.52672536    -0.19300
F4792       F  0.69368361  0.50037789  0.58153195    -0.22700
F4793       F  0.66771088  0.49709782  0.56255369    -0.24100
F4794       F  0.66532281  0.51213499  0.59086489    -0.18100
F4795       F  0.76274440  0.48382105  0.53792330    -0.20600
F4796       F  0.74673893  0.46081456  0.55415047    -0.21800
F4797       F  0.75146720  0.48977038  0.56750842    -0.19000
F4798       F  0.67103677  0.49542430  0.49938244    -0.19000
F4799       F  0.68159047  0.52539904  0.50469843    -0.22900
F4800       F  0.66227049  0.51083336  0.52620497    -0.24500
C4801       C  0.70560213  0.53522523  0.66227107    -0.11300
C4802       C  0.70623697  0.53676126  0.68231229     0.11300
C4803       C  0.69119952  0.54650151  0.69209110    -0.03100
C4804       C  0.67625533  0.55492174  0.68122696    -0.05800
C4805       C  0.67594227  0.55384064  0.66106547    -0.16600
C4806       C  0.69055380  0.54322270  0.65145396     0.02300
C4807       C  0.72314598  0.52844122  0.69254265     0.12300
C4808       C  0.69091615  0.54795161  0.71389108     0.62900
H4809       H  0.66507270  0.56303370  0.68836401     0.12300
C4810       C  0.69043475  0.54020071  0.62979466     0.55000
H4811       H  0.71731706  0.52798578  0.65504062     0.08100
C4812       C  0.72529680  0.50837804  0.69537576    -0.05700
C4813       C  0.74090792  0.50177846  0.70634781    -0.06500
C4814       C  0.75399503  0.51447488  0.71500555    -0.16000
C4815       C  0.75243379  0.53443236  0.71139178    -0.01600
C4816       C  0.73728859  0.54102325  0.69964462    -0.09200
C4817       C  0.71073374  0.49401097  0.68769661     0.65100
H4818       H  0.74232673  0.48657074  0.70940077     0.10500
C4819       C  0.76598196  0.54872126  0.72076776     0.63500
H4820       H  0.73577465  0.55623382  0.69669121     0.07900
F4821       F  0.67210568  0.53557759  0.62367321    -0.19600
F4822       F  0.70247689  0.52533030  0.62438188    -0.15800
F4823       F  0.69658856  0.55671627  0.62059173    -0.19300
F4824       F  0.70672746  0.55809019  0.72033650    -0.22700
F4825       F  0.69116788  0.52972137  0.72180298    -0.24100
F4826       F  0.67466632  0.55730927  0.72048706    -0.18100
F4827       F  0.76126548  0.56751497  0.71622283    -0.20600
F4828       F  0.78452758  0.54531546  0.71457229    -0.21800
F4829       F  0.76521574  0.54683829  0.74054974    -0.19000
F4830       F  0.71471577  0.47544403  0.69367482    -0.19000
F4831       F  0.71087544  0.49414117  0.66783878    -0.22900
F4832       F  0.69257138  0.49871667  0.69416497    -0.24500
C4833       C  0.53316825  0.69921940  0.54880825    -0.11300
C4834       C  0.53797608  0.69266655  0.53027844     0.11300
C4835       C  0.55244336  0.67857786  0.52813063    -0.03100
C4836       C  0.56150325  0.67134361  0.54463633    -0.05800
C4837       C  0.55701652  0.67798933  0.56319501    -0.16600
C4838       C  0.54250024  0.69212506  0.56542857     0.02300
C4839       C  0.52927274  0.70213022  0.51313761     0.12300
C4840       C  0.55886840  0.67173232  0.50839203     0.62900
H4841       H  0.57264412  0.66059550  0.54309324     0.12300
C4842       C  0.53765057  0.70041569  0.58503171     0.55000
H4843       H  0.52241018  0.71037807  0.55007646     0.08100
C4844       C  0.51085571  0.69729429  0.50591217    -0.05700
C4845       C  0.50427508  0.70648319  0.48907697    -0.06500
C4846       C  0.51534969  0.72041034  0.47953343    -0.16000
C4847       C  0.53373025  0.72518033  0.48683296    -0.01600
C4848       C  0.54032684  0.71598304  0.50356559    -0.09200
C4849       C  0.49799274  0.68300557  0.51622552     0.65100
H4850       H  0.48988925  0.70370830  0.48383006     0.10500
C4851       C  0.54623417  0.74013833  0.47711486     0.63500
H4852       H  0.55424950  0.71962652  0.50948184     0.07900
F4853       F  0.52448857  0.71525840  0.58375412    -0.19600
F4854       F  0.55412442  0.70757548  0.59355796    -0.15800
F4855       F  0.52982217  0.68629649  0.59662581    -0.19300
F4856       F  0.56839549  0.68641994  0.49898889    -0.22700
F4857       F  0.54315892  0.66615914  0.49758561    -0.24100
F4858       F  0.57122576  0.65621148  0.50959894    -0.18100
F4859       F  0.53699277  0.75772222  0.47685529    -0.20600
F4860       F  0.54997725  0.73433840  0.45851617    -0.21800
F4861       F  0.56364694  0.74249788  0.48643930    -0.19000
F4862       F  0.48068119  0.68044814  0.50675513    -0.19000
F4863       F  0.49403054  0.68955381  0.53456363    -0.22900
F4864       F  0.50702156  0.66536359  0.51739885    -0.24500
C4865       C  0.49678614  0.69476464  0.71924163    -0.11300
C4866       C  0.51606535  0.68935574  0.72110311     0.11300
C4867       C  0.52604916  0.69380927  0.73832203    -0.03100
C4868       C  0.51679900  0.70498610  0.75244328    -0.05800
C4869       C  0.49807566  0.71186214  0.74980422    -0.16600
C4870       C  0.48740458  0.70554093  0.73355599     0.02300
C4871       C  0.52564522  0.67983663  0.70444898     0.12300
C4872       C  0.54671997  0.68767820  0.74138525     0.62900
H4873       H  0.52479189  0.70986781  0.76486207     0.12300
C4874       C  0.46634161  0.71046067  0.73087426     0.55000
H4875       H  0.48926504  0.69110742  0.70610096     0.08100
C4876       C  0.52294265  0.66011294  0.70021541    -0.05700
C4877       C  0.53327371  0.65195078  0.68483448    -0.06500
C4878       C  0.54598893  0.66285917  0.67350790    -0.16000
C4879       C  0.54837244  0.68268718  0.67750526    -0.01600
C4880       C  0.53783624  0.69092657  0.69275694    -0.09200
C4881       C  0.50933270  0.64772515  0.71197628     0.65100
H4882       H  0.53180019  0.63675416  0.68171990     0.10500
C4883       C  0.56280888  0.69475655  0.66648777     0.63500
H4884       H  0.53946870  0.70605334  0.69609923     0.07900
F4885       F  0.45678249  0.70957849  0.74829047    -0.19600
F4886       F  0.45751326  0.69760321  0.71846747    -0.15800
F4887       F  0.46455135  0.72871711  0.72325311    -0.19300
F4888       F  0.55852856  0.69738867  0.72871347    -0.22700
F4889       F  0.54852790  0.66811914  0.73837043    -0.24100
F4890       F  0.55291438  0.69163268  0.75989219    -0.18100
F4891       F  0.56349977  0.71349620  0.67318435    -0.20600
F4892       F  0.55787405  0.69524416  0.64724746    -0.21800
F4893       F  0.58093995  0.68688097  0.66840799    -0.19000
F4894       F  0.51038830  0.62854652  0.70677197    -0.19000
F4895       F  0.49066958  0.65381896  0.70914745    -0.22900
F4896       F  0.51375249  0.64907361  0.73130843    -0.24500
loop_ 
_geom_bond_atom_site_label_1 
_geom_bond_atom_site_label_2 
_geom_bond_distance 
_geom_bond_site_symmetry_2 
_ccdc_geom_bond_type 
O1           Mg3   2.117       .  S
O1           Mg9   2.144       .  S
O1           C36   1.239       .  S
C2           O15   1.239       .  S
C2           O39   1.274       .  A
C2           H41   1.083       .  S
Mg3          O32   2.133       .  S
Mg3          O47   2.300       .  S
Mg3          O43   2.217       .  S
Mg3          O14   2.295       .  S
O4          Mg46   2.143       .  S
O4          Mg29   2.134       .  S
O4           C25   1.238       .  S
O5           C36   1.272       .  A
O5          Mg29   2.294       .  S
C6            O8   1.278       .  A
C6           O20   1.269       .  A
C6         C4709   1.501       .  S
O7           C35   1.272       .  A
O7           Mg9   2.305       .  S
O8          Mg40   2.322       .  S
Mg9          O15   2.165       .  S
Mg9          O23   2.350       .  S
Mg9          O11   2.376       .  S
C10          O48   1.267       .  A
C10          O16   1.283       .  A
C10        C4878   1.485       .  S
O11          C18   1.284       .  A
H12          C25   1.083       .  S
C13          O27   1.238       .  S
C13          O28   1.272       .  A
C13          H38   1.083       .  S
O14          C37   1.272       .  A
O15         Mg29   2.138       .  S
O16         Mg46   2.374       .  S
C17          O30   1.275       .  A
C17          O22   1.275       .  A
C17        C4837   1.491       .  S
C18          O45   1.271       .  A
C18        C4741   1.498       .  S
Mg19         O26   2.129       .  S
Mg19         O27   2.136       .  S
Mg19         O20   2.247       .  S
Mg19         O21   2.298       .  S
Mg19         O48   2.229       .  S
O21          C25   1.272       .  A
O22         Mg29   2.297       .  S
O23          C42   1.282       .  A
O24          C44   1.284       .  A
O24         Mg40   2.379       .  S
O26         Mg40   2.164       .  S
O26          C37   1.239       .  S
O27         Mg46   2.129       .  S
O28         Mg40   2.305       .  S
Mg29         O45   2.226       .  S
O30         Mg46   2.296       .  S
H31          C36   1.083       .  S
O32         Mg40   2.143       .  S
O32          C35   1.238       .  S
H33          C35   1.084       .  S
H34          C37   1.083       .  S
O39         Mg46   2.318       .  S
C42          O47   1.276       .  A
C42        C4773   1.510       .  S
O43          C44   1.267       .  A
C44        C4805   1.491       .  S
O49         Mg51   2.123       .  S
O49         Mg57   2.145       .  S
O49          C84   1.237       .  S
C50          O63   1.240       .  S
C50          O87   1.276       .  A
C50          H89   1.083       .  S
Mg51         O80   2.134       .  S
Mg51         O95   2.290       .  S
Mg51         O91   2.246       .  S
Mg51         O62   2.291       .  S
O52         Mg94   2.148       .  S
O52         Mg77   2.138       .  S
O52          C73   1.238       .  S
O53          C84   1.270       .  A
O53         Mg77   2.292       .  S
C54          O56   1.280       .  A
C54          O68   1.268       .  A
C54        C4677   1.503       .  S
O55          C83   1.274       .  A
O55         Mg57   2.311       .  S
O56         Mg88   2.326       .  S
Mg57         O63   2.173       .  S
Mg57         O71   2.365       .  S
Mg57         O59   2.401       .  S
C58          O96   1.267       .  A
C58          O64   1.283       .  A
C58        C4613   1.506       .  S
O59          C66   1.288       .  A
H60          C73   1.083       .  S
C61          O75   1.241       .  S
C61          O76   1.275       .  A
C61          H86   1.084       .  S
O62          C85   1.271       .  A
O63         Mg77   2.146       .  S
O64         Mg94   2.393       .  S
C65          O78   1.273       .  A
C65          O70   1.275       .  A
C65        C4645   1.507       .  S
C66          O93   1.271       .  A
C66        C4549   1.508       .  S
Mg67         O74   2.110       .  S
Mg67         O75   2.129       .  S
Mg67         O68   2.273       .  S
Mg67         O69   2.297       .  S
Mg67         O96   2.214       .  S
O69          C73   1.271       .  A
O70         Mg77   2.293       .  S
O71          C90   1.286       .  A
O72          C92   1.284       .  A
O72         Mg88   2.379       .  S
O74         Mg88   2.136       .  S
O74          C85   1.238       .  S
O75         Mg94   2.140       .  S
O76         Mg88   2.316       .  S
Mg77         O93   2.229       .  S
O78         Mg94   2.292       .  S
H79          C84   1.083       .  S
O80         Mg88   2.157       .  S
O80          C83   1.239       .  S
H81          C83   1.083       .  S
H82          C85   1.083       .  S
O87         Mg94   2.322       .  S
C90          O95   1.271       .  A
C90        C4517   1.519       .  S
O91          C92   1.269       .  A
C92        C4581   1.494       .  S
O97         Mg99   2.117       .  S
O97        Mg105   2.137       .  S
O97         C132   1.239       .  S
C98         O111   1.239       .  S
C98         O135   1.275       .  A
C98         H137   1.083       .  S
Mg99        O128   2.131       .  S
Mg99        O143   2.269       .  S
Mg99        O139   2.214       .  S
Mg99        O110   2.297       .  S
O100       Mg142   2.144       .  S
O100       Mg125   2.123       .  S
O100        C121   1.239       .  S
O101        C132   1.273       .  A
O101       Mg125   2.305       .  S
C102        O104   1.276       .  A
C102        O116   1.274       .  A
C102       C4494   1.505       .  S
O103        C131   1.274       .  A
O103       Mg105   2.311       .  S
O104       Mg136   2.304       .  S
Mg105       O111   2.164       .  S
Mg105       O119   2.323       .  S
Mg105       O107   2.368       .  S
C106        O144   1.271       .  A
C106        O112   1.286       .  A
C106       C4453   1.506       .  S
O107        C114   1.280       .  A
H108        C121   1.082       .  S
C109        O123   1.240       .  S
C109        O124   1.276       .  A
C109        H134   1.083       .  S
O110        C133   1.271       .  A
O111       Mg125   2.122       .  S
O112       Mg142   2.395       .  S
C113        O126   1.279       .  A
C113        O118   1.274       .  A
C113       C4421   1.515       .  S
C114        O141   1.268       .  A
C114       C4325   1.492       .  S
Mg115       O122   2.133       .  S
Mg115       O123   2.130       .  S
Mg115       O116   2.282       .  S
Mg115       O117   2.297       .  S
Mg115       O144   2.235       .  S
O117        C121   1.272       .  A
O118       Mg125   2.289       .  S
O119        C138   1.277       .  A
O120        C140   1.286       .  A
O120       Mg136   2.395       .  S
O122       Mg136   2.144       .  S
O122        C133   1.237       .  S
O123       Mg142   2.154       .  S
O124       Mg136   2.319       .  S
Mg125       O141   2.218       .  S
O126       Mg142   2.336       .  S
H127        C132   1.083       .  S
O128       Mg136   2.138       .  S
O128        C131   1.240       .  S
H129        C131   1.083       .  S
H130        C133   1.083       .  S
O135       Mg142   2.319       .  S
C138        O143   1.270       .  A
C138       C4357   1.493       .  S
O139        C140   1.267       .  A
C140       C4389   1.489       .  S
C145       C4261   1.514       .  S
C145        N146   1.376       .  A
C145        N150   1.370   1_554  A
N146        C147   1.372       .  A
C147       C4462   1.491       .  S
C147        N148   1.350       .  A
N148        C149   1.348   1_554  A
C149       C4293   1.479       .  S
C149        N150   1.365       .  A
C151       C4229   1.509       .  S
C151        N152   1.368       .  A
C151        N156   1.375       .  A
N152        C153   1.360       .  A
C153       C4590   1.481       .  S
C153        N154   1.347       .  A
N154        C155   1.351       .  A
C155       C4398   1.493       .  S
C155        N156   1.370       .  A
O157       Mg159   2.117       .  S
O157       Mg165   2.142       .  S
O157        C192   1.238       .  S
C158        O171   1.238       .  S
C158        O195   1.272       .  A
C158        H197   1.083       .  S
Mg159       O188   2.135       .  S
Mg159       O203   2.282       .  S
Mg159       O199   2.206       .  S
Mg159       O170   2.292       .  S
O160       Mg202   2.149       .  S
O160       Mg185   2.129       .  S
O160        C181   1.238       .  S
O161        C192   1.271       .  A
O161       Mg185   2.292       .  S
C162        O164   1.278       .  A
C162        O176   1.268       .  A
C162       C4165   1.504       .  S
O163        C191   1.272       .  A
O163       Mg165   2.304       .  S
O164       Mg196   2.300       .  S
Mg165       O171   2.142       .  S
Mg165       O179   2.317       .  S
Mg165       O167   2.373       .  S
C166        O204   1.270       .  A
C166        O172   1.281       .  A
C166       C4197   1.488       .  S
O167        C174   1.283       .  A
H168        C181   1.083       .  S
C169        O183   1.237       .  S
C169        O184   1.272       .  A
C169        H194   1.083       .  S
O170        C193   1.271       .  A
O171       Mg185   2.132       .  S
O172       Mg202   2.358       .  S
C173        O186   1.277       .  A
C173        O178   1.271       .  A
C173       C4101   1.485       .  S
C174        O201   1.269       .  A
C174       C4069   1.491       .  S
Mg175       O182   2.123       .  S
Mg175       O183   2.139       .  S
Mg175       O176   2.271       .  S
Mg175       O177   2.296       .  S
Mg175       O204   2.228       .  S
O177        C181   1.271       .  A
O178       Mg185   2.272       .  S
O179        C198   1.279       .  A
O180        C200   1.280       .  A
O180       Mg196   2.362       .  S
O182       Mg196   2.157       .  S
O182        C193   1.239       .  S
O183       Mg202   2.141       .  S
O184       Mg196   2.306       .  S
Mg185       O201   2.216       .  S
O186       Mg202   2.315       .  S
H187        C192   1.083       .  S
O188       Mg196   2.135       .  S
O188        C191   1.238       .  S
H189        C191   1.083       .  S
H190        C193   1.083       .  S
O195       Mg202   2.307       .  S
C198        O203   1.270       .  A
C198       C4302   1.491       .  S
O199        C200   1.268       .  A
C200       C4133   1.497       .  S
O205       Mg207   2.111       .  S
O205       Mg213   2.149       .  S
O205        C240   1.237       .  S
C206        O219   1.238       .  S
C206        O243   1.273       .  A
C206        H245   1.084       .  S
Mg207       O236   2.141       .  S
Mg207       O251   2.253       .  S
Mg207       O247   2.204       .  S
Mg207       O218   2.291       .  S
O208       Mg250   2.140       .  S
O208       Mg233   2.117       .  S
O208        C229   1.238       .  S
O209        C240   1.269       .  A
O209       Mg233   2.289       .  S
C210        O212   1.279       .  A
C210        O224   1.273       .  A
C210       C3982   1.497       .  S
O211        C239   1.274       .  A
O211       Mg213   2.310       .  S
O212       Mg244   2.308       .  S
Mg213       O219   2.137       .  S
Mg213       O227   2.318       .  S
Mg213       O215   2.371       .  S
C214        O252   1.266       .  A
C214        O220   1.281       .  A
C214       C3877   1.475       .  S
O215        C222   1.284       .  A
H216        C229   1.083       .  S
C217        O231   1.237       .  S
C217        O232   1.272       .  A
C217        H242   1.083       .  S
O218        C241   1.271       .  A
O219       Mg233   2.132       .  S
O220       Mg250   2.353       .  S
C221        O234   1.280       .  A
C221        O226   1.269       .  A
C221       C3909   1.498       .  S
C222        O249   1.264       .  A
C222       C3941   1.486       .  S
Mg223       O230   2.119       .  S
Mg223       O231   2.138       .  S
Mg223       O224   2.297       .  S
Mg223       O225   2.297       .  S
Mg223       O252   2.219       .  S
O225        C229   1.272       .  A
O226       Mg233   2.279       .  S
O227        C246   1.277       .  A
O228        C248   1.283       .  A
O228       Mg244   2.370       .  S
O230       Mg244   2.145       .  S
O230        C241   1.239       .  S
O231       Mg250   2.161       .  S
O232       Mg244   2.312       .  S
Mg233       O249   2.208       .  S
O234       Mg250   2.324       .  S
H235        C240   1.084       .  S
O236       Mg244   2.137       .  S
O236        C239   1.240       .  S
H237        C239   1.083       .  S
H238        C241   1.083       .  S
O243       Mg250   2.306       .  S
C246        O251   1.270       .  A
C246       C4037   1.497       .  S
O247        C248   1.266       .  A
C248       C4014   1.484       .  S
C253       C3845   1.496       .  S
C253        N254   1.364       .  A
C253        N258   1.370       .  A
N254        C255   1.358       .  A
C255       C3950   1.472       .  S
C255        N256   1.347       .  A
N256        C257   1.348       .  A
C257       C4110   1.476       .  S
C257        N258   1.364       .  A
C259       C3813   1.514       .  S
C259        N260   1.369       .  A
C259        N264   1.375       .  A
N260        C261   1.363       .  A
C261       C4206   1.477       .  S
C261        N262   1.344       .  A
N262        C263   1.345       .  A
C263       C4046   1.479       .  S
C263        N264   1.367       .  A
C265       C3749   1.493       .  S
C265        N266   1.366       .  A
C265        N270   1.369   1_545  A
N266        C267   1.362       .  A
C267       C4005   1.489       .  S
C267        N268   1.351       .  A
N268        C269   1.350   1_545  A
C269       C3781   1.483       .  S
C269        N270   1.366       .  A
C271       C3662   1.518       .  S
C271        N272   1.368   1_545  A
C271        N276   1.370       .  A
N272        C273   1.359       .  A
C273       C3685   1.465       .  S
C273        N274   1.347   1_565  A
N274        C275   1.345       .  A
C275       C3717   1.476       .  S
C275        N276   1.364       .  A
C277       C3589   1.517       .  S
C277        N278   1.373       .  A
C277        N282   1.371       .  A
N278        C279   1.367       .  A
C279       C3918   1.482       .  S
C279        N280   1.347       .  A
N280        C281   1.346       .  A
C281       C3630   1.485       .  S
C281        N282   1.360       .  A
C283       C3525   1.499       .  S
C283        N284   1.367       .  A
C283        N288   1.371   1_556  A
N284        C285   1.362       .  A
C285       C3886   1.475       .  S
C285        N286   1.351       .  A
N286        C287   1.350   1_556  A
C287       C3566   1.480       .  S
C287        N288   1.365       .  A
C289       C3429   1.489       .  S
C289        N290   1.367       .  A
C289        N294   1.370       .  A
N290        C291   1.361       .  A
C291       C3493   1.473       .  S
C291        N292   1.346       .  A
N292        C293   1.348       .  A
C293       C3461   1.479   1_545  S
C293        N294   1.365       .  A
C295       C3365   1.524       .  S
C295        N296   1.376   1_455  A
C295        N300   1.368       .  A
N296        C297   1.367       .  A
C297       C4334   1.476       .  S
C297        N298   1.345   1_655  A
N298        C299   1.343       .  A
C299       C3406   1.472       .  S
C299        N300   1.360       .  A
C301       C3301   1.515       .  S
C301        N302   1.371       .  A
C301        N306   1.373   1_455  A
N302        C303   1.365       .  A
C303       C3333   1.484       .  S
C303        N304   1.346   1_455  A
N304        C305   1.346       .  A
C305       C4366   1.478       .  S
C305        N306   1.364       .  A
O307       Mg309   2.116       .  S
O307       Mg315   2.144       .  S
O307        C342   1.239       .  S
C308        O321   1.237       .  S
C308        O345   1.270       .  A
C308        H347   1.083       .  S
Mg309       O338   2.137       .  S
Mg309       O353   2.288       .  S
Mg309       O349   2.217       .  S
Mg309       O320   2.303       .  S
O310       Mg352   2.149       .  S
O310       Mg335   2.116       .  S
O310        C331   1.238       .  S
O311        C342   1.272       .  A
O311       Mg335   2.293       .  S
C312        O314   1.276       .  A
C312        O326   1.273       .  A
C312       C3397   1.488       .  S
O313        C341   1.272       .  A
O313       Mg315   2.308       .  S
O314       Mg346   2.311       .  S
Mg315       O321   2.128       .  S
Mg315       O329   2.291       .  S
Mg315       O317   2.336       .  S
C316        O354   1.270       .  A
C316        O322   1.282       .  A
C316       C3621   1.474       .  S
O317        C324   1.279       .  A
H318        C331   1.083       .  S
C319        O333   1.238       .  S
C319        O334   1.272       .  A
C319        H344   1.083       .  S
O320        C343   1.272       .  A
O321       Mg335   2.133       .  S
O322       Mg352   2.355       .  S
C323        O336   1.279       .  A
C323        O328   1.267       .  A
C323       C3557   1.484       .  S
C324        O351   1.265       .  A
C324       C3502   1.480       .  S
Mg325       O332   2.139       .  S
Mg325       O333   2.138       .  S
Mg325       O326   2.275       .  S
Mg325       O327   2.291       .  S
Mg325       O354   2.232       .  S
O327        C331   1.270       .  A
O328       Mg335   2.254       .  S
O329        C348   1.274       .  A
O330        C350   1.281       .  A
O330       Mg346   2.361       .  S
O332       Mg346   2.155       .  S
O332        C343   1.238       .  S
O333       Mg352   2.145       .  S
O334       Mg346   2.311       .  S
Mg335       O351   2.214       .  S
O336       Mg352   2.331       .  S
H337        C342   1.083       .  S
O338       Mg346   2.140       .  S
O338        C341   1.238       .  S
H339        C341   1.084       .  S
H340        C343   1.084       .  S
O345       Mg352   2.294       .  S
C348        O353   1.273       .  A
C348       C3726   1.488       .  S
O349        C350   1.268       .  A
C350       C3342   1.492       .  S
O355       Mg357   2.129       .  S
O355       Mg363   2.137       .  S
O355        C390   1.239       .  S
C356        O369   1.238       .  S
C356        O393   1.273       .  A
C356        H395   1.084       .  S
Mg357       O386   2.135       .  S
Mg357       O401   2.265       .  S
Mg357       O397   2.224       .  S
Mg357       O368   2.288       .  S
O358       Mg400   2.145       .  S
O358       Mg383   2.124       .  S
O358        C379   1.239       .  S
O359        C390   1.273       .  A
O359       Mg383   2.305       .  S
C360        O362   1.277       .  A
C360        O374   1.272       .  A
C360       C3141   1.498       .  S
O361        C389   1.276       .  A
O361       Mg363   2.314       .  S
O362       Mg394   2.309       .  S
Mg363       O369   2.151       .  S
Mg363       O377   2.330       .  S
Mg363       O365   2.385       .  S
C364        O402   1.269       .  A
C364        O370   1.281       .  A
C364       C3173   1.491       .  S
O365        C372   1.285       .  A
H366        C379   1.083       .  S
C367        O381   1.238       .  S
C367        O382   1.273       .  A
C367        H392   1.084       .  S
O368        C391   1.270       .  A
O369       Mg383   2.129       .  S
O370       Mg400   2.357       .  S
C371        O384   1.278       .  A
C371        O376   1.276       .  A
C371       C3278   1.496       .  S
C372        O399   1.271       .  A
C372       C3205   1.494       .  S
Mg373       O380   2.119       .  S
Mg373       O381   2.144       .  S
Mg373       O374   2.269       .  S
Mg373       O375   2.296       .  S
Mg373       O402   2.227       .  S
O375        C379   1.272       .  A
O376       Mg383   2.305       .  S
O377        C396   1.281       .  A
O378        C398   1.283       .  A
O378       Mg394   2.378       .  S
O380       Mg394   2.153       .  S
O380        C391   1.237       .  S
O381       Mg400   2.153       .  S
O382       Mg394   2.310       .  S
Mg383       O399   2.234       .  S
O384       Mg400   2.321       .  S
H385        C390   1.083       .  S
O386       Mg394   2.141       .  S
O386        C389   1.241       .  S
H387        C389   1.083       .  S
H388        C391   1.083       .  S
O393       Mg400   2.313       .  S
C396        O401   1.266       .  A
C396       C3237   1.509       .  S
O397        C398   1.270       .  A
C398       C3790   1.502       .  S
O403       Mg405   2.133       .  S
O403       Mg411   2.155       .  S
O403        C438   1.239       .  S
C404        O417   1.239       .  S
C404        O441   1.275       .  A
C404        H443   1.083       .  S
Mg405       O434   2.131       .  S
Mg405       O449   2.273       .  S
Mg405       O445   2.240       .  S
Mg405       O416   2.298       .  S
O406       Mg448   2.136       .  S
O406       Mg431   2.128       .  S
O406        C427   1.238       .  S
O407        C438   1.272       .  A
O407       Mg431   2.300       .  S
C408        O410   1.275       .  A
C408        O422   1.273       .  A
C408       C3045   1.507       .  S
O409        C437   1.271       .  A
O409       Mg411   2.300       .  S
O410       Mg442   2.306       .  S
Mg411       O417   2.155       .  S
Mg411       O425   2.301       .  S
Mg411       O413   2.342       .  S
C412        O450   1.269       .  A
C412        O418   1.283       .  A
C412       C3118   1.484       .  S
O413        C420   1.279       .  A
H414        C427   1.083       .  S
C415        O429   1.240       .  S
C415        O430   1.274       .  A
C415        H440   1.083       .  S
O416        C439   1.272       .  A
O417       Mg431   2.135       .  S
O418       Mg448   2.379       .  S
C419        O432   1.277       .  A
C419        O424   1.274       .  A
C419       C3013   1.493       .  S
C420        O447   1.269       .  A
C420       C3470   1.478       .  S
Mg421       O428   2.130       .  S
Mg421       O429   2.134       .  S
Mg421       O422   2.278       .  S
Mg421       O423   2.301       .  S
Mg421       O450   2.245       .  S
O423        C427   1.271       .  A
O424       Mg431   2.297       .  S
O425        C444   1.275       .  A
O426        C446   1.283       .  A
O426       Mg442   2.360       .  S
O428       Mg442   2.147       .  S
O428        C439   1.238       .  S
O429       Mg448   2.150       .  S
O430       Mg442   2.311       .  S
Mg431       O447   2.238       .  S
O432       Mg448   2.309       .  S
H433        C438   1.083       .  S
O434       Mg442   2.129       .  S
O434        C437   1.237       .  S
H435        C437   1.083       .  S
H436        C439   1.083       .  S
O441       Mg448   2.318       .  S
C444        O449   1.272       .  A
C444       C3694   1.489       .  S
O445        C446   1.269       .  A
C446       C3077   1.479       .  S
C451       C2990   1.506       .  S
C451        N452   1.370       .  A
C451        N456   1.371   1_655  A
N452        C453   1.363       .  A
C453       C4558   1.480       .  S
C453        N454   1.347       .  A
N454        C455   1.349   1_655  A
C455       C3054   1.479       .  S
C455        N456   1.366       .  A
C457       C2949   1.519       .  S
C457        N458   1.369       .  A
C457        N462   1.374       .  A
N458        C459   1.363       .  A
C459       C3182   1.485       .  S
C459        N460   1.348       .  A
N460        C461   1.349       .  A
C461       C3022   1.485       .  S
C461        N462   1.367       .  A
C463       C2917   1.526       .  S
C463        N464   1.374       .  A
C463        N468   1.377       .  A
N464        C465   1.363       .  A
C465       C3269   1.482       .  S
C465        N466   1.343       .  A
N466        C467   1.345       .  A
C467       C3109   1.497       .  S
C467        N468   1.372       .  A
C469       C2894   1.512       .  S
C469        N470   1.374   1_455  A
C469        N474   1.374       .  A
N470        C471   1.367       .  A
C471       C4526   1.492       .  S
C471        N472   1.347   1_655  A
N472        C473   1.350       .  A
C473       C3086   1.500       .  S
C473        N474   1.368       .  A
C475       C2853   1.502       .  S
C475        N476   1.372       .  A
C475        N480   1.370   1_545  A
N476        C477   1.366       .  A
C477       C3973   1.489       .  S
C477        N478   1.349       .  A
N478        C479   1.346   1_545  A
C479       C3150   1.477       .  S
C479        N480   1.364       .  A
C481       C2821   1.511       .  S
C481        N482   1.369       .  A
C481        N486   1.373   1_556  A
N482        C483   1.362       .  A
C483       C4078   1.482       .  S
C483        N484   1.349   1_556  A
N484        C485   1.350       .  A
C485       C4430   1.483       .  S
C485        N486   1.366       .  A
C487       C2789   1.501       .  S
C487        N488   1.369       .  A
C487        N492   1.366       .  A
N488        C489   1.366       .  A
C489       C4869   1.485       .  S
C489        N490   1.350       .  A
N490        C491   1.350       .  A
C491       C3246   1.472       .  S
C491        N492   1.361       .  A
C493       C2757   1.514       .  S
C493        N494   1.374       .  A
C493        N498   1.372       .  A
N494        C495   1.366       .  A
C495       C3214   1.481       .  S
C495        N496   1.347       .  A
N496        C497   1.344       .  A
C497       C4846   1.477       .  S
C497        N498   1.364       .  A
C499       C2725   1.506       .  S
C499        N500   1.373       .  A
C499        N504   1.368       .  A
N500        C501   1.368       .  A
C501       C4750   1.483       .  S
C501        N502   1.350       .  A
N502        C503   1.349       .  A
C503       C4654   1.477       .  S
C503        N504   1.362       .  A
C505       C2693   1.492       .  S
C505        N506   1.368       .  A
C505        N510   1.369       .  A
N506        C507   1.361       .  A
C507       C4718   1.474       .  S
C507        N508   1.347       .  A
N508        C509   1.350       .  A
C509       C4174   1.480       .  S
C509        N510   1.364       .  A
C511       C2661   1.501       .  S
C511        N512   1.371       .  A
C511        N516   1.368       .  A
N512        C513   1.363       .  A
C513       C4814   1.480       .  S
C513        N514   1.349       .  A
N514        C515   1.347       .  A
C515       C4142   1.474       .  S
C515        N516   1.362       .  A
C517       C2638   1.516       .  S
C517        N518   1.372       .  A
C517        N522   1.375       .  A
N518        C519   1.365       .  A
C519       C4782   1.478       .  S
C519        N520   1.345       .  A
N520        C521   1.346       .  A
C521       C4622   1.482       .  S
C521        N522   1.368       .  A
C523       C2597   1.512       .  S
C523        N524   1.371       .  A
C523        N528   1.368       .  A
N524        C525   1.363       .  A
C525       C4686   1.476       .  S
C525        N526   1.348       .  A
N526        C527   1.347       .  A
C527       C4485   1.479       .  S
C527        N528   1.362       .  A
O529       Mg531   2.148       .  S
O529       Mg537   2.138       .  S
O529        C564   1.237       .  S
C530        O543   1.239       .  S
C530        O567   1.272       .  A
C530        H569   1.083       .  S
Mg531       O560   2.163       .  S
Mg531       O575   2.364       .  S
Mg531       O571   2.323       .  S
Mg531       O542   2.300       .  S
O532       Mg574   2.136       .  S
O532       Mg557   2.159       .  S
O532        C553   1.239       .  S
O533        C564   1.271       .  A
O533       Mg557   2.305       .  S
C534        O536   1.269       .  A
C534        O548   1.286       .  A
C534       C2542   1.490       .  S
O535        C563   1.272       .  A
O535       Mg537   2.292       .  S
O536       Mg568   2.238       .  S
Mg537       O543   2.129       .  S
Mg537       O551   2.223       .  S
Mg537       O539   2.275       .  S
C538        O576   1.279       .  A
C538        O544   1.273       .  A
C538       C2405   1.493       .  S
O539        C546   1.272       .  A
H540        C553   1.084       .  S
C541        O555   1.238       .  S
C541        O556   1.272       .  A
C541        H566   1.084       .  S
O542        C565   1.271       .  A
O543       Mg557   2.157       .  S
O544       Mg574   2.296       .  S
C545        O558   1.268       .  A
C545        O550   1.285       .  A
C545       C2501   1.503       .  S
C546        O573   1.282       .  A
C546       C2574   1.508       .  S
Mg547       O554   2.142       .  S
Mg547       O555   2.138       .  S
Mg547       O548   2.385       .  S
Mg547       O549   2.319       .  S
Mg547       O576   2.323       .  S
O549        C553   1.275       .  A
O550       Mg557   2.389       .  S
O551        C570   1.269       .  A
O552        C572   1.271       .  A
O552       Mg568   2.281       .  S
O554       Mg568   2.139       .  S
O554        C565   1.237       .  S
O555       Mg574   2.131       .  S
O556       Mg568   2.301       .  S
Mg557       O573   2.343       .  S
O558       Mg574   2.205       .  S
H559        C564   1.083       .  S
O560       Mg568   2.137       .  S
O560        C563   1.239       .  S
H561        C563   1.083       .  S
H562        C565   1.083       .  S
O567       Mg574   2.296       .  S
C570        O575   1.282       .  A
C570       C2437   1.494       .  S
O571        C572   1.278       .  A
C572       C2469   1.487       .  S
O577       Mg579   2.126       .  S
O577       Mg585   2.127       .  S
O577        C612   1.237       .  S
C578        O591   1.236       .  S
C578        O615   1.268       .  A
C578        H617   1.083       .  S
Mg579       O608   2.138       .  S
Mg579       O623   2.390       .  S
Mg579       O619   2.304       .  S
Mg579       O590   2.319       .  S
O580       Mg622   2.148       .  S
O580       Mg605   2.151       .  S
O580        C601   1.237       .  S
O581        C612   1.270       .  A
O581       Mg605   2.294       .  S
C582        O584   1.269       .  A
C582        O596   1.283       .  A
C582       C2341   1.503       .  S
O583        C611   1.273       .  A
O583       Mg585   2.297       .  S
O584       Mg616   2.228       .  S
Mg585       O591   2.124       .  S
Mg585       O599   2.237       .  S
Mg585       O587   2.275       .  S
C586        O624   1.278       .  A
C586        O592   1.267       .  A
C586       C2309   1.480       .  S
O587        C594   1.272       .  A
H588        C601   1.083       .  S
C589        O603   1.239       .  S
C589        O604   1.273       .  A
C589        H614   1.084       .  S
O590        C613   1.275       .  A
O591       Mg605   2.158       .  S
O592       Mg622   2.253       .  S
C593        O606   1.271       .  A
C593        O598   1.283       .  A
C593       C2213   1.487       .  S
C594        O621   1.279       .  A
C594       C2254   1.483       .  S
Mg595       O602   2.155       .  S
Mg595       O603   2.166       .  S
Mg595       O596   2.388       .  S
Mg595       O597   2.310       .  S
Mg595       O624   2.310       .  S
O597        C601   1.272       .  A
O598       Mg605   2.367       .  S
O599        C618   1.268       .  A
O600        C620   1.273       .  A
O600       Mg616   2.305       .  S
O602       Mg616   2.130       .  S
O602        C613   1.239       .  S
O603       Mg622   2.155       .  S
O604       Mg616   2.309       .  S
Mg605       O621   2.322       .  S
O606       Mg622   2.252       .  S
H607        C612   1.083       .  S
O608       Mg616   2.133       .  S
O608        C611   1.240       .  S
H609        C611   1.083       .  S
H610        C613   1.084       .  S
O615       Mg622   2.282       .  S
C618        O623   1.286       .  A
C618       C2382   1.500       .  S
O619        C620   1.277       .  A
C620       C2286   1.483       .  S
C625       C3822   1.522       .  S
C625        N626   1.372       .  A
C625        N630   1.379       .  A
N626        C627   1.364       .  A
C627       C2350   1.478       .  S
C627        N628   1.342       .  A
N628        C629   1.346       .  A
C629       C2181   1.494       .  S
C629        N630   1.371       .  A
O631       Mg633   2.160       .  S
O631       Mg639   2.148       .  S
O631        C666   1.238       .  S
C632        O645   1.239       .  S
C632        O669   1.273       .  A
C632        H671   1.083       .  S
Mg633       O662   2.149       .  S
Mg633       O677   2.362       .  S
Mg633       O673   2.315       .  S
Mg633       O644   2.306       .  S
O634       Mg676   2.140       .  S
O634       Mg659   2.156       .  S
O634        C655   1.240       .  S
O635        C666   1.273       .  A
O635       Mg659   2.311       .  S
C636        O638   1.269       .  A
C636        O650   1.282       .  A
C636       C2053   1.489       .  S
O637        C665   1.268       .  A
O637       Mg639   2.292       .  S
O638       Mg670   2.218       .  S
Mg639       O645   2.147       .  S
Mg639       O653   2.246       .  S
Mg639       O641   2.290       .  S
C640        O678   1.279       .  A
C640        O646   1.272       .  A
C640       C2126   1.509       .  S
O641        C648   1.272       .  A
H642        C655   1.083       .  S
C643        O657   1.237       .  S
C643        O658   1.269       .  A
C643        H668   1.083       .  S
O644        C667   1.272       .  A
O645       Mg659   2.157       .  S
O646       Mg676   2.299       .  S
C647        O660   1.269       .  A
C647        O652   1.281       .  A
C647       C2030   1.480       .  S
C648        O675   1.278       .  A
C648       C2094   1.493       .  S
Mg649       O656   2.146       .  S
Mg649       O657   2.136       .  S
Mg649       O650   2.367       .  S
Mg649       O651   2.316       .  S
Mg649       O678   2.316       .  S
O651        C655   1.275       .  A
O652       Mg659   2.360       .  S
O653        C672   1.271       .  A
O654        C674   1.270       .  A
O654       Mg670   2.250       .  S
O656       Mg670   2.137       .  S
O656        C667   1.238       .  S
O657       Mg676   2.104       .  S
O658       Mg670   2.285       .  S
Mg659       O675   2.316       .  S
O660       Mg676   2.233       .  S
H661        C666   1.083       .  S
O662       Mg670   2.122       .  S
O662        C665   1.235       .  S
H663        C665   1.083       .  S
H664        C667   1.083       .  S
O669       Mg676   2.305       .  S
C672        O677   1.282       .  A
C672       C2190   1.481       .  S
O673        C674   1.276       .  A
C674       C2158   1.503       .  S
C679       C2606   1.517       .  S
C679        N680   1.367       .  A
C679        N684   1.373       .  A
N680        C681   1.359       .  A
C681       C2062   1.470       .  S
C681        N682   1.344       .  A
N682        C683   1.347       .  A
C683       C1989   1.477       .  S
C683        N684   1.364       .  A
C685       C2798   1.525       .  S
C685        N686   1.375       .  A
C685        N690   1.368       .  A
N686        C687   1.366       .  A
C687       C1957   1.481       .  S
C687        N688   1.347       .  A
N688        C689   1.347       .  A
C689       C1925   1.474       .  S
C689        N690   1.362       .  A
O691       Mg693   2.143       .  S
O691       Mg699   2.138       .  S
O691        C726   1.239       .  S
C692        O705   1.237       .  S
C692        O729   1.270       .  A
C692        H731   1.083       .  S
Mg693       O722   2.146       .  S
Mg693       O737   2.386       .  S
Mg693       O733   2.330       .  S
Mg693       O704   2.320       .  S
O694       Mg736   2.144       .  S
O694       Mg719   2.154       .  S
O694        C715   1.239       .  S
O695        C726   1.273       .  A
O695       Mg719   2.304       .  S
C696        O698   1.266       .  A
C696        O710   1.280       .  A
C696       C1998   1.472       .  S
O697        C725   1.272       .  A
O697       Mg699   2.298       .  S
O698       Mg730   2.223       .  S
Mg699       O705   2.119       .  S
Mg699       O713   2.242       .  S
Mg699       O701   2.302       .  S
C700        O738   1.278       .  A
C700        O706   1.269       .  A
C700       C1797   1.506       .  S
O701        C708   1.277       .  A
H702        C715   1.083       .  S
C703        O717   1.236       .  S
C703        O718   1.269       .  A
C703        H728   1.083       .  S
O704        C727   1.275       .  A
O705       Mg719   2.141       .  S
O706       Mg736   2.274       .  S
C707        O720   1.271       .  A
C707        O712   1.281       .  A
C707       C1838   1.492       .  S
C708        O735   1.277       .  A
C708       C1870   1.508       .  S
Mg709       O716   2.153       .  S
Mg709       O717   2.152       .  S
Mg709       O710   2.355       .  S
Mg709       O711   2.307       .  S
Mg709       O738   2.315       .  S
O711        C715   1.273       .  A
O712       Mg719   2.352       .  S
O713        C732   1.272       .  A
O714        C734   1.264       .  A
O714       Mg730   2.256       .  S
O716       Mg730   2.134       .  S
O716        C727   1.240       .  S
O717       Mg736   2.111       .  S
O718       Mg730   2.293       .  S
Mg719       O735   2.315       .  S
O720       Mg736   2.234       .  S
H721        C726   1.083       .  S
O722       Mg730   2.125       .  S
O722        C725   1.238       .  S
H723        C725   1.083       .  S
H724        C727   1.083       .  S
O729       Mg736   2.290       .  S
C732        O737   1.286       .  A
C732       C1966   1.501       .  S
O733        C734   1.280       .  A
C734       C1893   1.508       .  S
C739       C2926   1.524       .  S
C739        N740   1.369       .  A
C739        N744   1.377       .  A
N740        C741   1.362       .  A
C741       C2021   1.483       .  S
C741        N742   1.346       .  A
N742        C743   1.346       .  A
C743       C2414   1.483       .  S
C743        N744   1.370       .  A
O745       Mg747   2.137       .  S
O745       Mg753   2.138       .  S
O745        C780   1.236       .  S
C746        O759   1.238       .  S
C746        O783   1.271       .  A
C746        H785   1.083       .  S
Mg747       O776   2.148       .  S
Mg747       O791   2.331       .  S
Mg747       O787   2.300       .  S
Mg747       O758   2.299       .  S
O748       Mg790   2.139       .  S
O748       Mg773   2.157       .  S
O748        C769   1.239       .  S
O749        C780   1.271       .  A
O749       Mg773   2.304       .  S
C750        O752   1.268       .  A
C750        O764   1.283       .  A
C750       C1765   1.496       .  S
O751        C779   1.271       .  A
O751       Mg753   2.291       .  S
O752       Mg784   2.220       .  S
Mg753       O759   2.135       .  S
Mg753       O767   2.242       .  S
Mg753       O755   2.265       .  S
C754        O792   1.275       .  A
C754        O760   1.272       .  A
C754       C1710   1.479       .  S
O755        C762   1.272       .  A
H756        C769   1.083       .  S
C757        O771   1.238       .  S
C757        O772   1.271       .  A
C757        H782   1.083       .  S
O758        C781   1.271       .  A
O759       Mg773   2.161       .  S
O760       Mg790   2.293       .  S
C761        O774   1.265       .  A
C761        O766   1.287       .  A
C761       C1669   1.497       .  S
C762        O789   1.281       .  A
C762       C1646   1.509       .  S
Mg763       O770   2.121       .  S
Mg763       O771   2.139       .  S
Mg763       O764   2.374       .  S
Mg763       O765   2.316       .  S
Mg763       O792   2.290       .  S
O765        C769   1.275       .  A
O766       Mg773   2.399       .  S
O767        C786   1.271       .  A
O768        C788   1.269       .  A
O768       Mg784   2.266       .  S
O770       Mg784   2.127       .  S
O770        C781   1.238       .  S
O771       Mg790   2.124       .  S
O772       Mg784   2.297       .  S
Mg773       O789   2.331       .  S
O774       Mg790   2.206       .  S
H775        C780   1.083       .  S
O776       Mg784   2.117       .  S
O776        C779   1.239       .  S
H777        C779   1.083       .  S
H778        C781   1.083       .  S
O783       Mg790   2.294       .  S
C786        O791   1.278       .  A
C786       C1733   1.485       .  S
O787        C788   1.275       .  A
C788       C1934   1.475       .  S
C793       C4270   1.510       .  S
C793        N794   1.378   1_556  A
C793        N798   1.370       .  A
N794        C795   1.373       .  A
C795       C1774   1.504       .  S
C795        N796   1.350   1_554  A
N796        C797   1.349       .  A
C797       C1605   1.491       .  S
C797        N798   1.365       .  A
O799       Mg801   2.140       .  S
O799       Mg807   2.119       .  S
O799        C834   1.238       .  S
C800        O813   1.240       .  S
C800        O837   1.273       .  A
C800        H839   1.082       .  S
Mg801       O830   2.138       .  S
Mg801       O845   2.356       .  S
Mg801       O841   2.297       .  S
Mg801       O812   2.315       .  S
O802       Mg844   2.134       .  S
O802       Mg827   2.151       .  S
O802        C823   1.238       .  S
O803        C834   1.273       .  A
O803       Mg827   2.312       .  S
C804        O806   1.271       .  A
C804        O818   1.285       .  A
C804       C1477   1.498       .  S
O805        C833   1.273       .  A
O805       Mg807   2.308       .  S
O806       Mg838   2.239       .  S
Mg807       O813   2.128       .  S
Mg807       O821   2.240       .  S
Mg807       O809   2.306       .  S
C808        O846   1.279       .  A
C808        O814   1.276       .  A
C808       C1573   1.509       .  S
O809        C816   1.276       .  A
H810        C823   1.083       .  S
C811        O825   1.237       .  S
C811        O826   1.269       .  A
C811        H836   1.083       .  S
O812        C835   1.276       .  A
O813       Mg827   2.146       .  S
O814       Mg844   2.290       .  S
C815        O828   1.270       .  A
C815        O820   1.282       .  A
C815       C1550   1.504       .  S
C816        O843   1.277       .  A
C816       C1509   1.498       .  S
Mg817       O824   2.150       .  S
Mg817       O825   2.148       .  S
Mg817       O818   2.383       .  S
Mg817       O819   2.311       .  S
Mg817       O846   2.324       .  S
O819        C823   1.273       .  A
O820       Mg827   2.369       .  S
O821        C840   1.268       .  A
O822        C842   1.272       .  A
O822       Mg838   2.268       .  S
O824       Mg838   2.146       .  S
O824        C835   1.241       .  S
O825       Mg844   2.118       .  S
O826       Mg838   2.287       .  S
Mg827       O843   2.313       .  S
O828       Mg844   2.228       .  S
H829        C834   1.083       .  S
O830       Mg838   2.128       .  S
O830        C833   1.239       .  S
H831        C833   1.083       .  S
H832        C835   1.083       .  S
O837       Mg844   2.298       .  S
C840        O845   1.280       .  A
C840       C1445   1.484       .  S
O841        C842   1.272       .  A
C842       C1422   1.502       .  S
C847       C3758   1.503       .  S
C847        N848   1.371       .  A
C847        N852   1.367       .  A
N848        C849   1.363       .  A
C849       C1582   1.474       .  S
C849        N850   1.346       .  A
N850        C851   1.346       .  A
C851       C1390   1.472   1_545  S
C851        N852   1.362       .  A
O853       Mg855   2.133       .  S
O853       Mg861   2.124       .  S
O853        C888   1.237       .  S
C854        O867   1.238       .  S
C854        O891   1.270       .  A
C854        H893   1.083       .  S
Mg855       O884   2.135       .  S
Mg855       O899   2.379       .  S
Mg855       O895   2.300       .  S
Mg855       O866   2.313       .  S
O856       Mg898   2.140       .  S
O856       Mg881   2.146       .  S
O856        C877   1.238       .  S
O857        C888   1.271       .  A
O857       Mg881   2.300       .  S
C858        O860   1.267       .  A
C858        O872   1.282       .  A
C858       C1253   1.477       .  S
O859        C887   1.271       .  A
O859       Mg861   2.297       .  S
O860       Mg892   2.224       .  S
Mg861       O867   2.122       .  S
Mg861       O875   2.205       .  S
Mg861       O863   2.297       .  S
C862        O900   1.279       .  A
C862        O868   1.266       .  A
C862       C1381   1.507       .  S
O863        C870   1.273       .  A
H864        C877   1.083       .  S
C865        O879   1.239       .  S
C865        O880   1.272       .  A
C865        H890   1.083       .  S
O866        C889   1.275       .  A
O867       Mg881   2.147       .  S
O868       Mg898   2.266       .  S
C869        O882   1.266       .  A
C869        O874   1.282       .  A
C869       C1285   1.476       .  S
C870        O897   1.278       .  A
C870       C1614   1.485       .  S
Mg871       O878   2.147       .  S
Mg871       O879   2.148       .  S
Mg871       O872   2.364       .  S
Mg871       O873   2.310       .  S
Mg871       O900   2.326       .  S
O873        C877   1.273       .  A
O874       Mg881   2.360       .  S
O875        C894   1.269       .  A
O876        C896   1.270       .  A
O876       Mg892   2.282       .  S
O878       Mg892   2.134       .  S
O878        C889   1.240       .  S
O879       Mg898   2.111       .  S
O880       Mg892   2.297       .  S
Mg881       O897   2.313       .  S
O882       Mg898   2.211       .  S
H883        C888   1.083       .  S
O884       Mg892   2.121       .  S
O884        C887   1.238       .  S
H885        C887   1.083       .  S
H886        C889   1.083       .  S
O891       Mg898   2.290       .  S
C894        O899   1.283       .  A
C894       C1317   1.494       .  S
O895        C896   1.277       .  A
C896       C1358   1.493       .  S
O901       Mg903   2.154       .  S
O901       Mg909   2.129       .  S
O901        C936   1.239       .  S
C902        O915   1.239       .  S
C902        O939   1.272       .  A
C902        H941   1.083       .  S
Mg903       O932   2.159       .  S
Mg903       O947   2.381       .  S
Mg903       O943   2.325       .  S
Mg903       O914   2.305       .  S
O904       Mg946   2.128       .  S
O904       Mg929   2.123       .  S
O904        C925   1.237       .  S
O905        C936   1.275       .  A
O905       Mg929   2.320       .  S
C906        O908   1.270       .  A
C906        O920   1.277       .  A
C906       C1070   1.470       .  S
O907        C935   1.273       .  A
O907       Mg909   2.303       .  S
O908       Mg940   2.240       .  S
Mg909       O915   2.126       .  S
Mg909       O923   2.212       .  S
Mg909       O911   2.294       .  S
C910        O948   1.276       .  A
C910        O916   1.269       .  A
C910       C1093   1.480       .  S
O911        C918   1.271       .  A
H912        C925   1.083       .  S
C913        O927   1.238       .  S
C913        O928   1.270       .  A
C913        H938   1.083       .  S
O914        C937   1.271       .  A
O915       Mg929   2.144       .  S
O916       Mg946   2.272       .  S
C917        O930   1.266       .  A
C917        O922   1.286       .  A
C917       C1157   1.500       .  S
C918        O945   1.278       .  A
C918       C1189   1.494       .  S
Mg919       O926   2.145       .  S
Mg919       O927   2.141       .  S
Mg919       O920   2.325       .  S
Mg919       O921   2.291       .  S
Mg919       O948   2.306       .  S
O921        C925   1.270       .  A
O922       Mg929   2.390       .  S
O923        C942   1.268       .  A
O924        C944   1.269       .  A
O924       Mg940   2.270       .  S
O926       Mg940   2.140       .  S
O926        C937   1.236       .  S
O927       Mg946   2.106       .  S
O928       Mg940   2.287       .  S
Mg929       O945   2.314       .  S
O930       Mg946   2.201       .  S
H931        C936   1.083       .  S
O932       Mg940   2.140       .  S
O932        C935   1.239       .  S
H933        C935   1.084       .  S
H934        C937   1.083       .  S
O939       Mg946   2.297       .  S
C942        O947   1.283       .  A
C942       C1221   1.506       .  S
O943        C944   1.280       .  A
C944       C1134   1.493       .  S
C949       C2981   1.505       .  S
C949        N950   1.370   1_455  A
C949        N954   1.368       .  A
N950        C951   1.363       .  A
C951       C1349   1.473       .  S
C951        N952   1.347       .  A
N952        C953   1.347   1_655  A
C953       C1230   1.480       .  S
C953        N954   1.362       .  A
C955       C2670   1.504       .  S
C955        N956   1.372       .  A
C955        N960   1.366       .  A
N956        C957   1.367       .  A
C957       C2565   1.486       .  S
C957        N958   1.351       .  A
N958        C959   1.351       .  A
C959       C1198   1.472       .  S
C959        N960   1.360       .  A
C961       C2702   1.494       .  S
C961        N962   1.371       .  A
C961        N966   1.369       .  A
N962        C963   1.365       .  A
C963       C1166   1.486       .  S
C963        N964   1.347       .  A
N964        C965   1.347       .  A
C965       C2510   1.478       .  S
C965        N966   1.363       .  A
C967       C2734   1.509       .  S
C967        N968   1.371       .  A
C967        N972   1.371       .  A
N968        C969   1.366       .  A
C969       C2373   1.484       .  S
C969        N970   1.348       .  A
N970        C971   1.347       .  A
C971       C1541   1.485       .  S
C971        N972   1.366       .  A
C973       C3310   1.520       .  S
C973        N974   1.370   1_455  A
C973        N978   1.371       .  A
N974        C975   1.361       .  A
C975       C1454   1.471       .  S
C975        N976   1.348   1_655  A
N976        C977   1.348       .  A
C977       C2478   1.480       .  S
C977        N978   1.365       .  A
C979       C3374   1.502       .  S
C979        N980   1.369   1_655  A
C979        N984   1.367       .  A
N980        C981   1.363       .  A
C981       C2446   1.483       .  S
C981        N982   1.351   1_455  A
N982        C983   1.351       .  A
C983       C1413   1.476       .  S
C983        N984   1.362       .  A
C985       C2766   1.523       .  S
C985        N986   1.369       .  A
C985        N990   1.375       .  A
N986        C987   1.361       .  A
C987       C1902   1.477       .  S
C987        N988   1.344       .  A
N988        C989   1.348       .  A
C989       C1742   1.485       .  S
C989        N990   1.366       .  A
C991       C3653   1.497       .  S
C991        N992   1.364       .  A
C991        N996   1.372   1_545  A
N992        C993   1.357       .  A
C993       C2245   1.463       .  S
C993        N994   1.347       .  A
N994        C995   1.349   1_545  A
C995       C1678   1.483       .  S
C995        N996   1.366       .  A
C997       C3534   1.495       .  S
C997        N998   1.369   1_554  A
C997       N1002   1.371       .  A
N998        C999   1.363       .  A
C999       C1061   1.485       .  S
C999       N1000   1.349   1_556  A
N1000      C1001   1.348       .  A
C1001      C1861   1.479       .  S
C1001      N1002   1.365       .  A
C1003      C2629   1.508       .  S
C1003      N1004   1.372       .  A
C1003      N1008   1.370       .  A
N1004      C1005   1.366       .  A
C1005      C1518   1.484       .  S
C1005      N1006   1.347       .  A
N1006      C1007   1.352       .  A
C1007      C2277   1.492       .  S
C1007      N1008   1.364       .  A
C1009      C4238   1.524       .  S
C1009      N1010   1.374       .  A
C1009      N1014   1.371       .  A
N1010      C1011   1.368       .  A
C1011      C2117   1.491       .  S
C1011      N1012   1.349       .  A
N1012      C1013   1.346       .  A
C1013      C1806   1.474       .  S
C1013      N1014   1.359       .  A
C1015      C3598   1.507       .  S
C1015      N1016   1.373   1_556  A
C1015      N1020   1.371       .  A
N1016      C1017   1.367       .  A
C1017      C1829   1.498       .  S
C1017      N1018   1.350   1_554  A
N1018      C1019   1.344       .  A
C1019      C1102   1.479       .  S
C1019      N1020   1.363       .  A
C1021      C3438   1.491       .  S
C1021      N1022   1.373       .  A
C1021      N1026   1.366   1_545  A
N1022      C1023   1.368       .  A
C1023      C2222   1.486       .  S
C1023      N1024   1.349       .  A
N1024      C1025   1.350   1_545  A
C1025      C1637   1.476       .  S
C1025      N1026   1.360       .  A
C1027      C3854   1.508       .  S
C1027      N1028   1.371       .  A
C1027      N1032   1.366       .  A
N1028      C1029   1.360       .  A
C1029      C2149   1.476       .  S
C1029      N1030   1.346       .  A
N1030      C1031   1.348       .  A
C1031      C2318   1.477       .  S
C1031      N1032   1.360       .  A
C1033      C2958   1.522       .  S
C1033      N1034   1.376       .  A
C1033      N1038   1.373       .  A
N1034      C1035   1.369       .  A
C1035      C2085   1.495       .  S
C1035      N1036   1.349       .  A
N1036      C1037   1.347       .  A
C1037      C2533   1.482       .  S
C1037      N1038   1.363       .  A
C1039      C2885   1.503       .  S
C1039      N1040   1.372       .  A
C1039      N1044   1.369   1_655  A
N1040      C1041   1.366       .  A
C1041      C1326   1.488       .  S
C1041      N1042   1.349       .  A
N1042      C1043   1.348   1_655  A
C1043      C1125   1.482       .  S
C1043      N1044   1.360       .  A
C1045      C2830   1.490       .  S
C1045      N1046   1.370   1_556  A
C1045      N1050   1.369       .  A
N1046      C1047   1.363       .  A
C1047      C1701   1.485       .  S
C1047      N1048   1.350   1_554  A
N1048      C1049   1.346       .  A
C1049      C1294   1.481       .  S
C1049      N1050   1.362       .  A
C1051      C2862   1.501       .  S
C1051      N1052   1.372       .  A
C1051      N1056   1.370   1_565  A
N1052      C1053   1.368       .  A
C1053      C1262   1.483       .  S
C1053      N1054   1.349       .  A
N1054      C1055   1.347   1_565  A
C1055      C1486   1.479       .  S
C1055      N1056   1.365       .  A
C1057      H1067   1.085   1_556  S
C1057      C1058   1.395       .  A
C1057      C1062   1.401   1_556  A
C1058      C1063   1.483       .  S
C1058      C1059   1.418       .  A
C1059      C1060   1.412       .  A
C1059      C1064   1.518       .  S
C1060      H1065   1.083       .  S
C1060      C1061   1.405       .  A
C1061      C1062   1.424   1_556  A
C1062      C1066   1.517       .  S
C1063      C1068   1.418       .  A
C1063      C1072   1.400       .  A
C1064      F1080   1.383       .  S
C1064      F1081   1.382       .  S
C1064      F1082   1.385       .  S
C1066      F1077   1.383       .  S
C1066      F1078   1.385       .  S
C1066      F1079   1.383       .  S
C1068      C1069   1.408       .  A
C1068      C1073   1.518       .  S
C1069      H1074   1.083       .  S
C1069      C1070   1.402       .  A
C1070      C1071   1.417       .  A
C1071      C1072   1.403       .  A
C1071      C1075   1.518       .  S
C1072      H1076   1.084       .  S
C1073      F1086   1.385       .  S
C1073      F1087   1.383       .  S
C1073      F1088   1.382       .  S
C1075      F1083   1.383       .  S
C1075      F1084   1.383       .  S
C1075      F1085   1.381       .  S
C1089      H1099   1.083       .  S
C1089      C1090   1.400       .  A
C1089      C1094   1.407       .  A
C1090      C1095   1.492       .  S
C1090      C1091   1.420       .  A
C1091      C1092   1.410       .  A
C1091      C1096   1.517       .  S
C1092      H1097   1.083       .  S
C1092      C1093   1.400       .  A
C1093      C1094   1.421       .  A
C1094      C1098   1.520       .  S
C1095      C1100   1.418       .  A
C1095      C1104   1.403       .  A
C1096      F1112   1.382       .  S
C1096      F1113   1.382       .  S
C1096      F1114   1.385       .  S
C1098      F1109   1.383       .  S
C1098      F1110   1.385       .  S
C1098      F1111   1.382       .  S
C1100      C1101   1.410       .  A
C1100      C1105   1.520       .  S
C1101      H1106   1.083       .  S
C1101      C1102   1.404       .  A
C1102      C1103   1.415       .  A
C1103      C1104   1.410       .  A
C1103      C1107   1.515       .  S
C1104      H1108   1.083       .  S
C1105      F1118   1.385   1_556  S
C1105      F1119   1.382       .  S
C1105      F1120   1.383       .  S
C1107      F1115   1.384       .  S
C1107      F1116   1.380       .  S
C1107      F1117   1.383       .  S
C1121      H1131   1.085       .  S
C1121      C1122   1.398       .  A
C1121      C1126   1.400       .  A
C1122      C1127   1.492       .  S
C1122      C1123   1.421   1_556  A
C1123      C1124   1.416       .  A
C1123      C1128   1.517       .  S
C1124      H1129   1.083       .  S
C1124      C1125   1.404       .  A
C1125      C1126   1.418   1_554  A
C1126      C1130   1.516       .  S
C1127      C1132   1.419       .  A
C1127      C1136   1.401       .  A
C1128      F1144   1.383       .  S
C1128      F1145   1.381   1_554  S
C1128      F1146   1.385       .  S
C1130      F1141   1.382       .  S
C1130      F1142   1.384       .  S
C1130      F1143   1.384   1_556  S
C1132      C1133   1.413       .  A
C1132      C1137   1.519       .  S
C1133      H1138   1.083       .  S
C1133      C1134   1.405       .  A
C1134      C1135   1.425       .  A
C1135      C1136   1.410       .  A
C1135      C1139   1.522       .  S
C1136      H1140   1.083       .  S
C1137      F1150   1.384       .  S
C1137      F1151   1.383       .  S
C1137      F1152   1.381       .  S
C1139      F1147   1.385       .  S
C1139      F1148   1.383       .  S
C1139      F1149   1.379       .  S
C1153      H1163   1.083       .  S
C1153      C1154   1.407       .  A
C1153      C1158   1.415       .  A
C1154      C1159   1.494       .  S
C1154      C1155   1.413       .  A
C1155      C1156   1.407       .  A
C1155      C1160   1.523       .  S
C1156      H1161   1.083       .  S
C1156      C1157   1.414       .  A
C1157      C1158   1.419       .  A
C1158      C1162   1.517       .  S
C1159      C1164   1.414       .  A
C1159      C1168   1.408       .  A
C1160      F1176   1.382       .  S
C1160      F1177   1.381       .  S
C1160      F1178   1.385       .  S
C1162      F1173   1.383       .  S
C1162      F1174   1.384       .  S
C1162      F1175   1.384       .  S
C1164      C1165   1.407       .  A
C1164      C1169   1.520       .  S
C1165      H1170   1.083       .  S
C1165      C1166   1.408       .  A
C1166      C1167   1.415       .  A
C1167      C1168   1.414       .  A
C1167      C1171   1.516       .  S
C1168      H1172   1.083       .  S
C1169      F1182   1.385       .  S
C1169      F1183   1.382       .  S
C1169      F1184   1.381       .  S
C1171      F1179   1.384       .  S
C1171      F1180   1.384       .  S
C1171      F1181   1.382       .  S
C1185      H1195   1.083       .  S
C1185      C1186   1.395       .  A
C1185      C1190   1.407       .  A
C1186      C1191   1.488       .  S
C1186      C1187   1.417       .  A
C1187      C1188   1.412       .  A
C1187      C1192   1.518       .  S
C1188      H1193   1.083       .  S
C1188      C1189   1.405       .  A
C1189      C1190   1.429       .  A
C1190      C1194   1.521       .  S
C1191      C1196   1.417       .  A
C1191      C1200   1.404       .  A
C1192      F1208   1.383       .  S
C1192      F1209   1.382       .  S
C1192      F1210   1.384       .  S
C1194      F1205   1.385       .  S
C1194      F1206   1.382       .  S
C1194      F1207   1.380       .  S
C1196      C1197   1.407   1_455  A
C1196      C1201   1.518       .  S
C1197      H1202   1.083       .  S
C1197      C1198   1.401       .  A
C1198      C1199   1.413       .  A
C1199      C1200   1.409   1_655  A
C1199      C1203   1.516       .  S
C1200      H1204   1.083       .  S
C1201      F1214   1.385   1_455  S
C1201      F1215   1.382       .  S
C1201      F1216   1.382       .  S
C1203      F1211   1.385       .  S
C1203      F1212   1.383       .  S
C1203      F1213   1.383       .  S
C1217      H1227   1.083       .  S
C1217      C1218   1.407       .  A
C1217      C1222   1.417       .  A
C1218      C1223   1.490       .  S
C1218      C1219   1.410       .  A
C1219      C1220   1.403       .  A
C1219      C1224   1.523       .  S
C1220      H1225   1.082       .  S
C1220      C1221   1.415       .  A
C1221      C1222   1.424       .  A
C1222      C1226   1.518       .  S
C1223      C1228   1.414       .  A
C1223      C1232   1.409       .  A
C1224      F1240   1.382       .  S
C1224      F1241   1.381       .  S
C1224      F1242   1.385       .  S
C1226      F1237   1.385       .  S
C1226      F1238   1.383       .  S
C1226      F1239   1.384       .  S
C1228      C1229   1.405       .  A
C1228      C1233   1.522   1_455  S
C1229      H1234   1.083   1_455  S
C1229      C1230   1.404       .  A
C1230      C1231   1.415       .  A
C1231      C1232   1.414       .  A
C1231      C1235   1.518       .  S
C1232      H1236   1.083       .  S
C1233      F1246   1.384       .  S
C1233      F1247   1.382   1_655  S
C1233      F1248   1.381   1_655  S
C1235      F1243   1.384       .  S
C1235      F1244   1.383       .  S
C1235      F1245   1.384       .  S
C1249      H1259   1.083       .  S
C1249      C1250   1.399       .  A
C1249      C1254   1.405       .  A
C1250      C1255   1.490       .  S
C1250      C1251   1.420       .  A
C1251      C1252   1.412       .  A
C1251      C1256   1.517       .  S
C1252      H1257   1.083       .  S
C1252      C1253   1.401       .  A
C1253      C1254   1.420       .  A
C1254      C1258   1.521       .  S
C1255      C1260   1.415   1_655  A
C1255      C1264   1.404   1_655  A
C1256      F1272   1.382       .  S
C1256      F1273   1.383       .  S
C1256      F1274   1.385       .  S
C1258      F1269   1.385       .  S
C1258      F1270   1.382       .  S
C1258      F1271   1.383       .  S
C1260      C1261   1.408       .  A
C1260      C1265   1.521   1_455  S
C1261      H1266   1.084   1_565  S
C1261      C1262   1.407       .  A
C1262      C1263   1.416       .  A
C1263      C1264   1.412       .  A
C1263      C1267   1.515       .  S
C1264      H1268   1.083       .  S
C1265      F1278   1.384   1_565  S
C1265      F1279   1.382       .  S
C1265      F1280   1.383       .  S
C1267      F1275   1.385       .  S
C1267      F1276   1.383       .  S
C1267      F1277   1.383       .  S
C1281      H1291   1.084       .  S
C1281      C1282   1.406       .  A
C1281      C1286   1.411       .  A
C1282      C1287   1.491       .  S
C1282      C1283   1.415       .  A
C1283      C1284   1.405       .  A
C1283      C1288   1.521       .  S
C1284      H1289   1.084       .  S
C1284      C1285   1.405       .  A
C1285      C1286   1.420       .  A
C1286      C1290   1.520       .  S
C1287      C1292   1.420   1_565  A
C1287      C1296   1.400       .  A
C1288      F1304   1.381       .  S
C1288      F1305   1.383   1_565  S
C1288      F1306   1.384       .  S
C1290      F1301   1.383       .  S
C1290      F1302   1.383       .  S
C1290      F1303   1.380       .  S
C1292      C1293   1.414       .  A
C1292      C1297   1.518       .  S
C1293      H1298   1.083       .  S
C1293      C1294   1.403       .  A
C1294      C1295   1.419       .  A
C1295      C1296   1.402   1_545  A
C1295      C1299   1.519   1_556  S
C1296      H1300   1.085       .  S
C1297      F1310   1.385       .  S
C1297      F1311   1.382   1_545  S
C1297      F1312   1.382       .  S
C1299      F1307   1.383   1_545  S
C1299      F1308   1.384       .  S
C1299      F1309   1.385   1_545  S
C1313      H1323   1.083       .  S
C1313      C1314   1.405       .  A
C1313      C1318   1.414       .  A
C1314      C1319   1.485       .  S
C1314      C1315   1.409       .  A
C1315      C1316   1.400       .  A
C1315      C1320   1.521       .  S
C1316      H1321   1.083       .  S
C1316      C1317   1.411       .  A
C1317      C1318   1.423       .  A
C1318      C1322   1.518       .  S
C1319      C1324   1.411       .  A
C1319      C1328   1.404       .  A
C1320      F1336   1.383       .  S
C1320      F1337   1.381       .  S
C1320      F1338   1.384       .  S
C1322      F1333   1.386       .  S
C1322      F1334   1.383       .  S
C1322      F1335   1.383       .  S
C1324      C1325   1.405       .  A
C1324      C1329   1.521       .  S
C1325      H1330   1.083       .  S
C1325      C1326   1.409   1_556  A
C1326      C1327   1.419       .  A
C1327      C1328   1.412   1_554  A
C1327      C1331   1.516       .  S
C1328      H1332   1.083       .  S
C1329      F1342   1.384       .  S
C1329      F1343   1.382       .  S
C1329      F1344   1.382       .  S
C1331      F1339   1.383       .  S
C1331      F1340   1.383       .  S
C1331      F1341   1.385       .  S
C1345      H1355   1.083       .  S
C1345      C1346   1.400       .  A
C1345      C1350   1.404       .  A
C1346      C1351   1.487       .  S
C1346      C1347   1.419       .  A
C1347      C1348   1.411       .  A
C1347      C1352   1.519       .  S
C1348      H1353   1.083       .  S
C1348      C1349   1.402       .  A
C1349      C1350   1.416       .  A
C1350      C1354   1.518   1_655  S
C1351      C1356   1.418       .  A
C1351      C1360   1.395       .  A
C1352      F1368   1.382       .  S
C1352      F1369   1.383       .  S
C1352      F1370   1.385       .  S
C1354      F1365   1.382       .  S
C1354      F1366   1.385       .  S
C1354      F1367   1.383       .  S
C1356      C1357   1.410       .  A
C1356      C1361   1.519       .  S
C1357      H1362   1.083       .  S
C1357      C1358   1.405       .  A
C1358      C1359   1.429       .  A
C1359      C1360   1.405       .  A
C1359      C1363   1.520       .  S
C1360      H1364   1.083       .  S
C1361      F1374   1.385       .  S
C1361      F1375   1.382       .  S
C1361      F1376   1.383       .  S
C1363      F1371   1.382       .  S
C1363      F1372   1.380       .  S
C1363      F1373   1.385       .  S
C1377      H1387   1.083       .  S
C1377      C1378   1.392       .  A
C1377      C1382   1.405       .  A
C1378      C1383   1.485       .  S
C1378      C1379   1.414       .  A
C1379      C1380   1.413       .  A
C1379      C1384   1.520       .  S
C1380      H1385   1.082       .  S
C1380      C1381   1.412       .  A
C1381      C1382   1.436       .  A
C1382      C1386   1.523       .  S
C1383      C1388   1.418       .  A
C1383      C1392   1.401   1_565  A
C1384      F1400   1.383       .  S
C1384      F1401   1.382       .  S
C1384      F1402   1.384       .  S
C1386      F1397   1.382       .  S
C1386      F1398   1.385       .  S
C1386      F1399   1.384       .  S
C1388      C1389   1.408       .  A
C1388      C1393   1.518       .  S
C1389      H1394   1.083       .  S
C1389      C1390   1.400       .  A
C1390      C1391   1.418   1_565  A
C1391      C1392   1.405       .  A
C1391      C1395   1.519       .  S
C1392      H1396   1.084       .  S
C1393      F1406   1.385       .  S
C1393      F1407   1.382       .  S
C1393      F1408   1.382       .  S
C1395      F1403   1.385       .  S
C1395      F1404   1.384       .  S
C1395      F1405   1.381       .  S
C1409      H1419   1.083       .  S
C1409      C1410   1.401       .  A
C1409      C1414   1.405       .  A
C1410      C1415   1.485       .  S
C1410      C1411   1.415       .  A
C1411      C1412   1.409   1_655  A
C1411      C1416   1.518   1_655  S
C1412      H1417   1.083       .  S
C1412      C1413   1.405   1_455  A
C1413      C1414   1.415       .  A
C1414      C1418   1.515       .  S
C1415      C1420   1.410       .  A
C1415      C1424   1.403       .  A
C1416      F1432   1.382       .  S
C1416      F1433   1.382       .  S
C1416      F1434   1.385       .  S
C1418      F1429   1.378       .  S
C1418      F1430   1.384       .  S
C1418      F1431   1.383       .  S
C1420      C1421   1.403       .  A
C1420      C1425   1.522       .  S
C1421      H1426   1.081       .  S
C1421      C1422   1.414       .  A
C1422      C1423   1.427       .  A
C1423      C1424   1.412       .  A
C1423      C1427   1.520       .  S
C1424      H1428   1.083       .  S
C1425      F1438   1.385       .  S
C1425      F1439   1.382       .  S
C1425      F1440   1.381       .  S
C1427      F1435   1.383       .  S
C1427      F1436   1.383       .  S
C1427      F1437   1.385       .  S
C1441      H1451   1.083       .  S
C1441      C1442   1.396       .  A
C1441      C1446   1.403       .  A
C1442      C1447   1.483       .  S
C1442      C1443   1.418       .  A
C1443      C1444   1.412       .  A
C1443      C1448   1.519       .  S
C1444      H1449   1.083       .  S
C1444      C1445   1.404       .  A
C1445      C1446   1.425       .  A
C1446      C1450   1.522       .  S
C1447      C1452   1.416       .  A
C1447      C1456   1.401       .  A
C1448      F1464   1.382       .  S
C1448      F1465   1.383       .  S
C1448      F1466   1.384       .  S
C1450      F1461   1.385       .  S
C1450      F1462   1.381       .  S
C1450      F1463   1.382       .  S
C1452      C1453   1.409       .  A
C1452      C1457   1.520       .  S
C1453      H1458   1.083   1_655  S
C1453      C1454   1.403       .  A
C1454      C1455   1.415       .  A
C1455      C1456   1.404       .  A
C1455      C1459   1.517       .  S
C1456      H1460   1.083       .  S
C1457      F1470   1.384   1_655  S
C1457      F1471   1.382       .  S
C1457      F1472   1.382       .  S
C1459      F1467   1.385       .  S
C1459      F1468   1.382       .  S
C1459      F1469   1.383       .  S
C1473      H1483   1.083       .  S
C1473      C1474   1.408       .  A
C1473      C1478   1.417       .  A
C1474      C1479   1.495       .  S
C1474      C1475   1.413       .  A
C1475      C1476   1.408       .  A
C1475      C1480   1.521   1_655  S
C1476      H1481   1.083       .  S
C1476      C1477   1.410       .  A
C1477      C1478   1.419       .  A
C1478      C1482   1.517       .  S
C1479      C1484   1.419   1_655  A
C1479      C1488   1.402   1_655  A
C1480      F1496   1.383       .  S
C1480      F1497   1.382       .  S
C1480      F1498   1.384       .  S
C1482      F1493   1.384       .  S
C1482      F1494   1.383       .  S
C1482      F1495   1.383       .  S
C1484      C1485   1.413       .  A
C1484      C1489   1.519       .  S
C1485      H1490   1.083       .  S
C1485      C1486   1.403       .  A
C1486      C1487   1.421       .  A
C1487      C1488   1.408       .  A
C1487      C1491   1.520   1_545  S
C1488      H1492   1.084   1_455  S
C1489      F1502   1.384       .  S
C1489      F1503   1.382   1_455  S
C1489      F1504   1.382       .  S
C1491      F1499   1.384       .  S
C1491      F1500   1.383       .  S
C1491      F1501   1.383       .  S
C1505      H1515   1.083       .  S
C1505      C1506   1.406       .  A
C1505      C1510   1.416       .  A
C1506      C1511   1.495       .  S
C1506      C1507   1.413       .  A
C1507      C1508   1.409       .  A
C1507      C1512   1.520       .  S
C1508      H1513   1.083       .  S
C1508      C1509   1.410       .  A
C1509      C1510   1.421       .  A
C1510      C1514   1.518       .  S
C1511      C1516   1.417       .  A
C1511      C1520   1.403       .  A
C1512      F1528   1.382       .  S
C1512      F1529   1.382       .  S
C1512      F1530   1.384       .  S
C1514      F1525   1.385       .  S
C1514      F1526   1.382       .  S
C1514      F1527   1.383       .  S
C1516      C1517   1.412       .  A
C1516      C1521   1.520       .  S
C1517      H1522   1.083       .  S
C1517      C1518   1.407       .  A
C1518      C1519   1.421       .  A
C1519      C1520   1.410       .  A
C1519      C1523   1.517       .  S
C1520      H1524   1.084       .  S
C1521      F1534   1.384       .  S
C1521      F1535   1.383       .  S
C1521      F1536   1.382       .  S
C1523      F1531   1.384       .  S
C1523      F1532   1.380       .  S
C1523      F1533   1.383       .  S
C1537      H1547   1.083       .  S
C1537      C1538   1.405   1_565  A
C1537      C1542   1.411       .  A
C1538      C1543   1.493       .  S
C1538      C1539   1.416       .  A
C1539      C1540   1.411   1_545  A
C1539      C1544   1.521       .  S
C1540      H1545   1.083       .  S
C1540      C1541   1.409       .  A
C1541      C1542   1.415       .  A
C1542      C1546   1.516       .  S
C1543      C1548   1.412       .  A
C1543      C1552   1.406       .  A
C1544      F1560   1.382       .  S
C1544      F1561   1.382       .  S
C1544      F1562   1.384       .  S
C1546      F1557   1.384       .  S
C1546      F1558   1.384       .  S
C1546      F1559   1.383       .  S
C1548      C1549   1.405       .  A
C1548      C1553   1.521       .  S
C1549      H1554   1.082       .  S
C1549      C1550   1.413       .  A
C1550      C1551   1.424       .  A
C1551      C1552   1.416       .  A
C1551      C1555   1.519       .  S
C1552      H1556   1.083       .  S
C1553      F1566   1.385       .  S
C1553      F1567   1.382   1_545  S
C1553      F1568   1.381   1_545  S
C1555      F1563   1.383       .  S
C1555      F1564   1.382       .  S
C1555      F1565   1.385       .  S
C1569      H1579   1.083       .  S
C1569      C1570   1.405       .  A
C1569      C1574   1.416       .  A
C1570      C1575   1.494       .  S
C1570      C1571   1.411       .  A
C1571      C1572   1.406       .  A
C1571      C1576   1.521       .  S
C1572      H1577   1.082       .  S
C1572      C1573   1.415       .  A
C1573      C1574   1.426       .  A
C1574      C1578   1.519       .  S
C1575      C1580   1.417       .  A
C1575      C1584   1.405       .  A
C1576      F1592   1.382       .  S
C1576      F1593   1.382       .  S
C1576      F1594   1.385       .  S
C1578      F1589   1.385       .  S
C1578      F1590   1.382       .  S
C1578      F1591   1.383       .  S
C1580      C1581   1.410       .  A
C1580      C1585   1.519   1_545  S
C1581      H1586   1.083   1_545  S
C1581      C1582   1.405       .  A
C1582      C1583   1.418       .  A
C1583      C1584   1.409       .  A
C1583      C1587   1.520       .  S
C1584      H1588   1.084       .  S
C1585      F1598   1.384       .  S
C1585      F1599   1.382       .  S
C1585      F1600   1.382       .  S
C1587      F1595   1.383       .  S
C1587      F1596   1.382       .  S
C1587      F1597   1.383       .  S
C1601      H1611   1.083       .  S
C1601      C1602   1.405       .  A
C1601      C1606   1.413       .  A
C1602      C1607   1.490       .  S
C1602      C1603   1.415       .  A
C1603      C1604   1.407       .  A
C1603      C1608   1.522       .  S
C1604      H1609   1.084       .  S
C1604      C1605   1.409       .  A
C1605      C1606   1.418       .  A
C1606      C1610   1.515       .  S
C1607      C1612   1.419       .  A
C1607      C1616   1.399       .  A
C1608      F1624   1.382       .  S
C1608      F1625   1.382       .  S
C1608      F1626   1.385       .  S
C1610      F1621   1.383   1_556  S
C1610      F1622   1.384       .  S
C1610      F1623   1.383       .  S
C1612      C1613   1.414       .  A
C1612      C1617   1.519       .  S
C1613      H1618   1.083       .  S
C1613      C1614   1.403       .  A
C1614      C1615   1.421       .  A
C1615      C1616   1.407       .  A
C1615      C1619   1.518       .  S
C1616      H1620   1.083       .  S
C1617      F1630   1.384       .  S
C1617      F1631   1.383       .  S
C1617      F1632   1.382       .  S
C1619      F1627   1.382       .  S
C1619      F1628   1.382       .  S
C1619      F1629   1.384       .  S
C1633      H1643   1.083       .  S
C1633      C1634   1.406       .  A
C1633      C1638   1.412       .  A
C1634      C1639   1.488       .  S
C1634      C1635   1.415       .  A
C1635      C1636   1.404       .  A
C1635      C1640   1.519       .  S
C1636      H1641   1.084       .  S
C1636      C1637   1.403       .  A
C1637      C1638   1.414       .  A
C1638      C1642   1.517       .  S
C1639      C1644   1.409       .  A
C1639      C1648   1.403       .  A
C1640      F1656   1.382       .  S
C1640      F1657   1.382       .  S
C1640      F1658   1.385       .  S
C1642      F1653   1.384       .  S
C1642      F1654   1.383   1_565  S
C1642      F1655   1.383       .  S
C1644      C1645   1.407       .  A
C1644      C1649   1.522       .  S
C1645      H1650   1.082       .  S
C1645      C1646   1.419       .  A
C1646      C1647   1.425       .  A
C1647      C1648   1.413       .  A
C1647      C1651   1.518       .  S
C1648      H1652   1.083       .  S
C1649      F1662   1.384       .  S
C1649      F1663   1.382       .  S
C1649      F1664   1.382       .  S
C1651      F1659   1.383       .  S
C1651      F1660   1.383       .  S
C1651      F1661   1.385       .  S
C1665      H1675   1.084       .  S
C1665      C1666   1.397       .  A
C1665      C1670   1.406       .  A
C1666      C1671   1.493       .  S
C1666      C1667   1.419       .  A
C1667      C1668   1.415       .  A
C1667      C1672   1.517       .  S
C1668      H1673   1.082       .  S
C1668      C1669   1.405       .  A
C1669      C1670   1.429       .  A
C1670      C1674   1.522       .  S
C1671      C1676   1.420       .  A
C1671      C1680   1.397       .  A
C1672      F1688   1.383       .  S
C1672      F1689   1.382       .  S
C1672      F1690   1.384       .  S
C1674      F1685   1.383       .  S
C1674      F1686   1.385       .  S
C1674      F1687   1.384       .  S
C1676      C1677   1.417       .  A
C1676      C1681   1.517       .  S
C1677      H1682   1.083       .  S
C1677      C1678   1.405       .  A
C1678      C1679   1.421   1_565  A
C1679      C1680   1.403   1_545  A
C1679      C1683   1.519       .  S
C1680      H1684   1.084   1_565  S
C1681      F1694   1.384       .  S
C1681      F1695   1.383       .  S
C1681      F1696   1.383       .  S
C1683      F1691   1.384       .  S
C1683      F1692   1.384       .  S
C1683      F1693   1.383       .  S
C1697      H1707   1.083       .  S
C1697      C1698   1.408   1_545  A
C1697      C1702   1.415       .  A
C1698      C1703   1.489       .  S
C1698      C1699   1.414       .  A
C1699      C1700   1.400   1_565  A
C1699      C1704   1.521       .  S
C1700      H1705   1.083   1_554  S
C1700      C1701   1.405       .  A
C1701      C1702   1.416       .  A
C1702      C1706   1.516       .  S
C1703      C1708   1.420       .  A
C1703      C1712   1.400       .  A
C1704      F1720   1.382   1_554  S
C1704      F1721   1.382       .  S
C1704      F1722   1.385   1_554  S
C1706      F1717   1.383       .  S
C1706      F1718   1.385       .  S
C1706      F1719   1.383       .  S
C1708      C1709   1.410       .  A
C1708      C1713   1.519       .  S
C1709      H1714   1.083       .  S
C1709      C1710   1.402       .  A
C1710      C1711   1.418       .  A
C1711      C1712   1.407       .  A
C1711      C1715   1.517       .  S
C1712      H1716   1.083       .  S
C1713      F1726   1.385       .  S
C1713      F1727   1.382       .  S
C1713      F1728   1.383       .  S
C1715      F1723   1.381       .  S
C1715      F1724   1.382       .  S
C1715      F1725   1.385       .  S
C1729      H1739   1.083       .  S
C1729      C1730   1.404       .  A
C1729      C1734   1.410       .  A
C1730      C1735   1.486       .  S
C1730      C1731   1.413       .  A
C1731      C1732   1.405       .  A
C1731      C1736   1.519       .  S
C1732      H1737   1.084       .  S
C1732      C1733   1.407       .  A
C1733      C1734   1.419       .  A
C1734      C1738   1.519       .  S
C1735      C1740   1.412       .  A
C1735      C1744   1.405       .  A
C1736      F1752   1.382       .  S
C1736      F1753   1.382       .  S
C1736      F1754   1.384       .  S
C1738      F1749   1.383       .  S
C1738      F1750   1.384       .  S
C1738      F1751   1.383       .  S
C1740      C1741   1.404       .  A
C1740      C1745   1.520       .  S
C1741      H1746   1.083       .  S
C1741      C1742   1.409       .  A
C1742      C1743   1.417       .  A
C1743      C1744   1.412       .  A
C1743      C1747   1.516       .  S
C1744      H1748   1.083       .  S
C1745      F1758   1.384       .  S
C1745      F1759   1.383       .  S
C1745      F1760   1.382       .  S
C1747      F1755   1.385       .  S
C1747      F1756   1.383       .  S
C1747      F1757   1.382       .  S
C1761      H1771   1.083       .  S
C1761      C1762   1.406       .  A
C1761      C1766   1.415       .  A
C1762      C1767   1.495       .  S
C1762      C1763   1.413       .  A
C1763      C1764   1.407       .  A
C1763      C1768   1.520       .  S
C1764      H1769   1.083       .  S
C1764      C1765   1.411       .  A
C1765      C1766   1.421       .  A
C1766      C1770   1.518       .  S
C1767      C1772   1.413       .  A
C1767      C1776   1.405       .  A
C1768      F1784   1.383       .  S
C1768      F1785   1.381       .  S
C1768      F1786   1.385       .  S
C1770      F1781   1.383       .  S
C1770      F1782   1.384       .  S
C1770      F1783   1.384       .  S
C1772      C1773   1.410   1_554  A
C1772      C1777   1.522   1_554  S
C1773      H1778   1.083       .  S
C1773      C1774   1.414   1_556  A
C1774      C1775   1.420       .  A
C1775      C1776   1.417       .  A
C1775      C1779   1.513       .  S
C1776      H1780   1.083       .  S
C1777      F1790   1.384       .  S
C1777      F1791   1.383       .  S
C1777      F1792   1.382       .  S
C1779      F1787   1.385       .  S
C1779      F1788   1.383       .  S
C1779      F1789   1.382       .  S
C1793      H1803   1.083       .  S
C1793      C1794   1.393       .  A
C1793      C1798   1.405       .  A
C1794      C1799   1.486       .  S
C1794      C1795   1.415       .  A
C1795      C1796   1.413       .  A
C1795      C1800   1.521       .  S
C1796      H1801   1.082       .  S
C1796      C1797   1.412       .  A
C1797      C1798   1.434       .  A
C1798      C1802   1.522       .  S
C1799      C1804   1.417       .  A
C1799      C1808   1.401       .  A
C1800      F1816   1.383       .  S
C1800      F1817   1.381       .  S
C1800      F1818   1.384       .  S
C1802      F1813   1.384       .  S
C1802      F1814   1.384       .  S
C1802      F1815   1.383       .  S
C1804      C1805   1.411       .  A
C1804      C1809   1.519       .  S
C1805      H1810   1.083       .  S
C1805      C1806   1.403       .  A
C1806      C1807   1.414       .  A
C1807      C1808   1.406       .  A
C1807      C1811   1.517       .  S
C1808      H1812   1.083       .  S
C1809      F1822   1.384       .  S
C1809      F1823   1.383       .  S
C1809      F1824   1.381       .  S
C1811      F1819   1.384       .  S
C1811      F1820   1.384       .  S
C1811      F1821   1.382       .  S
C1825      H1835   1.083       .  S
C1825      C1826   1.407       .  A
C1825      C1830   1.417       .  A
C1826      C1831   1.487       .  S
C1826      C1827   1.410       .  A
C1827      C1828   1.400       .  A
C1827      C1832   1.523       .  S
C1828      H1833   1.082       .  S
C1828      C1829   1.412       .  A
C1829      C1830   1.421       .  A
C1830      C1834   1.517       .  S
C1831      C1836   1.411       .  A
C1831      C1840   1.405       .  A
C1832      F1848   1.382       .  S
C1832      F1849   1.382       .  S
C1832      F1850   1.384       .  S
C1834      F1845   1.385       .  S
C1834      F1846   1.383       .  S
C1834      F1847   1.383       .  S
C1836      C1837   1.403       .  A
C1836      C1841   1.521       .  S
C1837      H1842   1.079       .  S
C1837      C1838   1.408       .  A
C1838      C1839   1.421       .  A
C1839      C1840   1.413       .  A
C1839      C1843   1.519       .  S
C1840      H1844   1.083       .  S
C1841      F1854   1.385       .  S
C1841      F1855   1.382       .  S
C1841      F1856   1.382       .  S
C1843      F1851   1.383       .  S
C1843      F1852   1.383       .  S
C1843      F1853   1.385       .  S
C1857      H1867   1.083       .  S
C1857      C1858   1.406       .  A
C1857      C1862   1.411       .  A
C1858      C1863   1.496       .  S
C1858      C1859   1.417       .  A
C1859      C1860   1.408       .  A
C1859      C1864   1.518   1_554  S
C1860      H1865   1.084   1_554  S
C1860      C1861   1.404       .  A
C1861      C1862   1.414       .  A
C1862      C1866   1.516       .  S
C1863      C1868   1.412       .  A
C1863      C1872   1.405       .  A
C1864      F1880   1.382       .  S
C1864      F1881   1.382       .  S
C1864      F1882   1.385       .  S
C1866      F1877   1.385       .  S
C1866      F1878   1.382       .  S
C1866      F1879   1.383       .  S
C1868      C1869   1.407       .  A
C1868      C1873   1.520       .  S
C1869      H1874   1.082       .  S
C1869      C1870   1.413       .  A
C1870      C1871   1.427       .  A
C1871      C1872   1.416       .  A
C1871      C1875   1.519       .  S
C1872      H1876   1.083       .  S
C1873      F1886   1.384       .  S
C1873      F1887   1.382       .  S
C1873      F1888   1.382       .  S
C1875      F1883   1.385       .  S
C1875      F1884   1.383       .  S
C1875      F1885   1.383       .  S
C1889      H1899   1.083       .  S
C1889      C1890   1.393       .  A
C1889      C1894   1.407       .  A
C1890      C1895   1.489       .  S
C1890      C1891   1.415       .  A
C1891      C1892   1.412       .  A
C1891      C1896   1.518       .  S
C1892      H1897   1.082       .  S
C1892      C1893   1.410       .  A
C1893      C1894   1.438       .  A
C1894      C1898   1.525       .  S
C1895      C1900   1.418       .  A
C1895      C1904   1.401       .  A
C1896      F1912   1.383       .  S
C1896      F1913   1.382       .  S
C1896      F1914   1.385       .  S
C1898      F1909   1.383       .  S
C1898      F1910   1.386       .  S
C1898      F1911   1.383       .  S
C1900      C1901   1.411       .  A
C1900      C1905   1.519       .  S
C1901      H1906   1.083       .  S
C1901      C1902   1.402       .  A
C1902      C1903   1.418       .  A
C1903      C1904   1.408       .  A
C1903      C1907   1.518       .  S
C1904      H1908   1.083       .  S
C1905      F1918   1.384       .  S
C1905      F1919   1.383       .  S
C1905      F1920   1.382       .  S
C1907      F1915   1.384       .  S
C1907      F1916   1.384       .  S
C1907      F1917   1.382       .  S
C1921      H1931   1.083       .  S
C1921      C1922   1.401       .  A
C1921      C1926   1.406   1_554  A
C1922      C1927   1.486       .  S
C1922      C1923   1.418       .  A
C1923      C1924   1.410   1_554  A
C1923      C1928   1.520       .  S
C1924      H1929   1.083       .  S
C1924      C1925   1.402       .  A
C1925      C1926   1.416       .  A
C1926      C1930   1.518       .  S
C1927      C1932   1.414       .  A
C1927      C1936   1.406       .  A
C1928      F1944   1.382       .  S
C1928      F1945   1.383       .  S
C1928      F1946   1.384   1_554  S
C1930      F1941   1.384       .  S
C1930      F1942   1.383       .  S
C1930      F1943   1.383       .  S
C1932      C1933   1.406       .  A
C1932      C1937   1.520       .  S
C1933      H1938   1.083       .  S
C1933      C1934   1.404       .  A
C1934      C1935   1.411       .  A
C1935      C1936   1.409       .  A
C1935      C1939   1.515       .  S
C1936      H1940   1.083       .  S
C1937      F1950   1.384       .  S
C1937      F1951   1.382       .  S
C1937      F1952   1.383   1_554  S
C1939      F1947   1.382       .  S
C1939      F1948   1.384       .  S
C1939      F1949   1.384       .  S
C1953      H1963   1.083       .  S
C1953      C1954   1.405       .  A
C1953      C1958   1.412   1_554  A
C1954      C1959   1.496       .  S
C1954      C1955   1.419   1_554  A
C1955      C1956   1.412       .  A
C1955      C1960   1.521   1_556  S
C1956      H1961   1.083       .  S
C1956      C1957   1.403       .  A
C1957      C1958   1.416       .  A
C1958      C1962   1.518       .  S
C1959      C1964   1.413       .  A
C1959      C1968   1.407       .  A
C1960      F1976   1.382       .  S
C1960      F1977   1.381       .  S
C1960      F1978   1.384   1_554  S
C1962      F1973   1.383       .  S
C1962      F1974   1.384       .  S
C1962      F1975   1.383       .  S
C1964      C1965   1.410       .  A
C1964      C1969   1.521       .  S
C1965      H1970   1.083       .  S
C1965      C1966   1.412       .  A
C1966      C1967   1.419       .  A
C1967      C1968   1.416       .  A
C1967      C1971   1.516       .  S
C1968      H1972   1.083       .  S
C1969      F1982   1.384       .  S
C1969      F1983   1.382   1_554  S
C1969      F1984   1.381   1_554  S
C1971      F1979   1.383       .  S
C1971      F1980   1.383       .  S
C1971      F1981   1.384       .  S
C1985      H1995   1.083       .  S
C1985      C1986   1.407       .  A
C1985      C1990   1.411       .  A
C1986      C1991   1.486       .  S
C1986      C1987   1.416       .  A
C1987      C1988   1.404       .  A
C1987      C1992   1.522       .  S
C1988      H1993   1.084       .  S
C1988      C1989   1.405       .  A
C1989      C1990   1.413       .  A
C1990      C1994   1.516       .  S
C1991      C1996   1.420       .  A
C1991      C2000   1.398       .  A
C1992      F2008   1.381       .  S
C1992      F2009   1.382       .  S
C1992      F2010   1.385       .  S
C1994      F2005   1.384       .  S
C1994      F2006   1.384       .  S
C1994      F2007   1.383       .  S
C1996      C1997   1.412       .  A
C1996      C2001   1.518       .  S
C1997      H2002   1.083       .  S
C1997      C1998   1.402       .  A
C1998      C1999   1.416       .  A
C1999      C2000   1.401       .  A
C1999      C2003   1.518       .  S
C2000      H2004   1.083       .  S
C2001      F2014   1.385       .  S
C2001      F2015   1.382       .  S
C2001      F2016   1.383       .  S
C2003      F2011   1.382       .  S
C2003      F2012   1.383       .  S
C2003      F2013   1.384       .  S
C2017      H2027   1.085       .  S
C2017      C2018   1.399       .  A
C2017      C2022   1.404       .  A
C2018      C2023   1.491       .  S
C2018      C2019   1.420       .  A
C2019      C2020   1.412       .  A
C2019      C2024   1.517       .  S
C2020      H2025   1.083       .  S
C2020      C2021   1.403       .  A
C2021      C2022   1.423       .  A
C2022      C2026   1.521       .  S
C2023      C2028   1.416       .  A
C2023      C2032   1.406       .  A
C2024      F2040   1.382       .  S
C2024      F2041   1.382       .  S
C2024      F2042   1.385       .  S
C2026      F2037   1.384       .  S
C2026      F2038   1.383       .  S
C2026      F2039   1.383       .  S
C2028      C2029   1.408       .  A
C2028      C2033   1.520       .  S
C2029      H2034   1.083       .  S
C2029      C2030   1.404       .  A
C2030      C2031   1.413       .  A
C2031      C2032   1.412       .  A
C2031      C2035   1.515       .  S
C2032      H2036   1.083       .  S
C2033      F2046   1.384       .  S
C2033      F2047   1.382       .  S
C2033      F2048   1.382       .  S
C2035      F2043   1.384       .  S
C2035      F2044   1.383       .  S
C2035      F2045   1.383       .  S
C2049      H2059   1.083       .  S
C2049      C2050   1.408       .  A
C2049      C2054   1.414       .  A
C2050      C2055   1.486       .  S
C2050      C2051   1.411       .  A
C2051      C2052   1.402       .  A
C2051      C2056   1.521       .  S
C2052      H2057   1.083       .  S
C2052      C2053   1.410       .  A
C2053      C2054   1.416       .  A
C2054      C2058   1.516       .  S
C2055      C2060   1.417       .  A
C2055      C2064   1.403       .  A
C2056      F2072   1.382       .  S
C2056      F2073   1.382       .  S
C2056      F2074   1.384       .  S
C2058      F2069   1.384       .  S
C2058      F2070   1.383       .  S
C2058      F2071   1.383       .  S
C2060      C2061   1.407       .  A
C2060      C2065   1.519       .  S
C2061      H2066   1.084       .  S
C2061      C2062   1.401       .  A
C2062      C2063   1.415       .  A
C2063      C2064   1.408       .  A
C2063      C2067   1.517       .  S
C2064      H2068   1.083       .  S
C2065      F2078   1.385       .  S
C2065      F2079   1.382       .  S
C2065      F2080   1.382       .  S
C2067      F2075   1.383       .  S
C2067      F2076   1.383       .  S
C2067      F2077   1.385       .  S
C2081      H2091   1.084       .  S
C2081      C2082   1.399       .  A
C2081      C2086   1.406       .  A
C2082      C2087   1.497       .  S
C2082      C2083   1.419       .  A
C2083      C2084   1.417       .  A
C2083      C2088   1.515       .  S
C2084      H2089   1.083       .  S
C2084      C2085   1.405       .  A
C2085      C2086   1.425       .  A
C2086      C2090   1.518       .  S
C2087      C2092   1.419       .  A
C2087      C2096   1.402       .  A
C2088      F2104   1.384       .  S
C2088      F2105   1.382       .  S
C2088      F2106   1.384       .  S
C2090      F2101   1.382       .  S
C2090      F2102   1.384       .  S
C2090      F2103   1.384       .  S
C2092      C2093   1.412       .  A
C2092      C2097   1.519       .  S
C2093      H2098   1.083       .  S
C2093      C2094   1.404       .  A
C2094      C2095   1.423       .  A
C2095      C2096   1.413       .  A
C2095      C2099   1.519       .  S
C2096      H2100   1.083       .  S
C2097      F2110   1.384       .  S
C2097      F2111   1.383       .  S
C2097      F2112   1.382       .  S
C2099      F2107   1.384       .  S
C2099      F2108   1.384       .  S
C2099      F2109   1.382       .  S
C2113      H2123   1.084       .  S
C2113      C2114   1.397       .  A
C2113      C2118   1.403       .  A
C2114      C2119   1.494       .  S
C2114      C2115   1.421       .  A
C2115      C2116   1.418       .  A
C2115      C2120   1.518       .  S
C2116      H2121   1.083       .  S
C2116      C2117   1.406       .  A
C2117      C2118   1.422       .  A
C2118      C2122   1.518       .  S
C2119      C2124   1.415       .  A
C2119      C2128   1.397       .  A
C2120      F2136   1.382       .  S
C2120      F2137   1.382       .  S
C2120      F2138   1.384       .  S
C2122      F2133   1.383       .  S
C2122      F2134   1.385       .  S
C2122      F2135   1.384       .  S
C2124      C2125   1.415       .  A
C2124      C2129   1.520       .  S
C2125      H2130   1.082       .  S
C2125      C2126   1.413       .  A
C2126      C2127   1.432       .  A
C2127      C2128   1.410       .  A
C2127      C2131   1.522       .  S
C2128      H2132   1.083       .  S
C2129      F2142   1.384       .  S
C2129      F2143   1.383       .  S
C2129      F2144   1.382       .  S
C2131      F2139   1.384       .  S
C2131      F2140   1.382       .  S
C2131      F2141   1.385       .  S
C2145      H2155   1.083       .  S
C2145      C2146   1.404       .  A
C2145      C2150   1.408       .  A
C2146      C2151   1.487       .  S
C2146      C2147   1.415       .  A
C2147      C2148   1.407       .  A
C2147      C2152   1.520       .  S
C2148      H2153   1.084       .  S
C2148      C2149   1.404       .  A
C2149      C2150   1.415       .  A
C2150      C2154   1.516       .  S
C2151      C2156   1.410       .  A
C2151      C2160   1.405       .  A
C2152      F2168   1.381       .  S
C2152      F2169   1.382       .  S
C2152      F2170   1.385       .  S
C2154      F2165   1.385       .  S
C2154      F2166   1.383       .  S
C2154      F2167   1.383       .  S
C2156      C2157   1.403       .  A
C2156      C2161   1.522       .  S
C2157      H2162   1.081       .  S
C2157      C2158   1.416       .  A
C2158      C2159   1.424       .  A
C2159      C2160   1.413       .  A
C2159      C2163   1.520       .  S
C2160      H2164   1.083       .  S
C2161      F2174   1.385       .  S
C2161      F2175   1.382       .  S
C2161      F2176   1.382       .  S
C2163      F2171   1.385       .  S
C2163      F2172   1.383       .  S
C2163      F2173   1.384       .  S
C2177      H2187   1.085       .  S
C2177      C2178   1.394       .  A
C2177      C2182   1.400       .  A
C2178      C2183   1.490       .  S
C2178      C2179   1.420       .  A
C2179      C2180   1.419       .  A
C2179      C2184   1.517       .  S
C2180      H2185   1.083       .  S
C2180      C2181   1.406       .  A
C2181      C2182   1.427       .  A
C2182      C2186   1.517       .  S
C2183      C2188   1.419       .  A
C2183      C2192   1.400       .  A
C2184      F2200   1.383       .  S
C2184      F2201   1.381       .  S
C2184      F2202   1.384       .  S
C2186      F2197   1.384       .  S
C2186      F2198   1.384       .  S
C2186      F2199   1.382       .  S
C2188      C2189   1.414       .  A
C2188      C2193   1.519       .  S
C2189      H2194   1.083       .  S
C2189      C2190   1.405       .  A
C2190      C2191   1.419       .  A
C2191      C2192   1.404       .  A
C2191      C2195   1.518       .  S
C2192      H2196   1.084       .  S
C2193      F2206   1.385       .  S
C2193      F2207   1.383       .  S
C2193      F2208   1.381       .  S
C2195      F2203   1.384       .  S
C2195      F2204   1.382       .  S
C2195      F2205   1.382       .  S
C2209      H2219   1.084       .  S
C2209      C2210   1.400       .  A
C2209      C2214   1.407       .  A
C2210      C2215   1.495       .  S
C2210      C2211   1.418       .  A
C2211      C2212   1.414       .  A
C2211      C2216   1.517       .  S
C2212      H2217   1.083       .  S
C2212      C2213   1.404       .  A
C2213      C2214   1.424       .  A
C2214      C2218   1.520       .  S
C2215      C2220   1.421       .  A
C2215      C2224   1.400       .  A
C2216      F2232   1.383       .  S
C2216      F2233   1.381       .  S
C2216      F2234   1.385       .  S
C2218      F2229   1.382       .  S
C2218      F2230   1.384       .  S
C2218      F2231   1.382       .  S
C2220      C2221   1.415       .  A
C2220      C2225   1.519       .  S
C2221      H2226   1.083       .  S
C2221      C2222   1.403       .  A
C2222      C2223   1.423       .  A
C2223      C2224   1.407       .  A
C2223      C2227   1.519       .  S
C2224      H2228   1.085       .  S
C2225      F2238   1.384       .  S
C2225      F2239   1.383       .  S
C2225      F2240   1.381       .  S
C2227      F2235   1.384       .  S
C2227      F2236   1.383       .  S
C2227      F2237   1.383       .  S
C2241      H2251   1.084       .  S
C2241      C2242   1.404       .  A
C2241      C2246   1.405       .  A
C2242      C2247   1.486       .  S
C2242      C2243   1.418       .  A
C2243      C2244   1.405       .  A
C2243      C2248   1.521       .  S
C2244      H2249   1.084       .  S
C2244      C2245   1.401       .  A
C2245      C2246   1.414       .  A
C2246      C2250   1.519   1_545  S
C2247      C2252   1.420       .  A
C2247      C2256   1.396       .  A
C2248      F2264   1.381       .  S
C2248      F2265   1.383       .  S
C2248      F2266   1.385       .  S
C2250      F2261   1.383       .  S
C2250      F2262   1.383       .  S
C2250      F2263   1.383       .  S
C2252      C2253   1.414       .  A
C2252      C2257   1.519       .  S
C2253      H2258   1.083       .  S
C2253      C2254   1.404       .  A
C2254      C2255   1.421       .  A
C2255      C2256   1.401       .  A
C2255      C2259   1.520       .  S
C2256      H2260   1.083       .  S
C2257      F2270   1.384       .  S
C2257      F2271   1.382       .  S
C2257      F2272   1.383       .  S
C2259      F2267   1.385       .  S
C2259      F2268   1.381       .  S
C2259      F2269   1.383       .  S
C2273      H2283   1.083       .  S
C2273      C2274   1.406       .  A
C2273      C2278   1.416       .  A
C2274      C2279   1.488       .  S
C2274      C2275   1.414       .  A
C2275      C2276   1.401       .  A
C2275      C2280   1.521       .  S
C2276      H2281   1.083       .  S
C2276      C2277   1.407       .  A
C2277      C2278   1.420       .  A
C2278      C2282   1.516       .  S
C2279      C2284   1.418       .  A
C2279      C2288   1.397       .  A
C2280      F2296   1.382       .  S
C2280      F2297   1.382       .  S
C2280      F2298   1.385       .  S
C2282      F2293   1.383       .  S
C2282      F2294   1.385       .  S
C2282      F2295   1.384       .  S
C2284      C2285   1.413       .  A
C2284      C2289   1.517       .  S
C2285      H2290   1.083       .  S
C2285      C2286   1.404       .  A
C2286      C2287   1.419       .  A
C2287      C2288   1.405       .  A
C2287      C2291   1.515       .  S
C2288      H2292   1.083       .  S
C2289      F2302   1.385       .  S
C2289      F2303   1.383       .  S
C2289      F2304   1.382       .  S
C2291      F2299   1.385       .  S
C2291      F2300   1.380       .  S
C2291      F2301   1.382       .  S
C2305      H2315   1.083       .  S
C2305      C2306   1.399       .  A
C2305      C2310   1.406       .  A
C2306      C2311   1.479       .  S
C2306      C2307   1.418       .  A
C2307      C2308   1.407       .  A
C2307      C2312   1.522       .  S
C2308      H2313   1.083       .  S
C2308      C2309   1.402       .  A
C2309      C2310   1.421       .  A
C2310      C2314   1.520       .  S
C2311      C2316   1.416       .  A
C2311      C2320   1.395       .  A
C2312      F2328   1.383       .  S
C2312      F2329   1.381       .  S
C2312      F2330   1.384       .  S
C2314      F2325   1.380       .  S
C2314      F2326   1.385       .  S
C2314      F2327   1.383       .  S
C2316      C2317   1.411       .  A
C2316      C2321   1.518       .  S
C2317      H2322   1.083       .  S
C2317      C2318   1.405       .  A
C2318      C2319   1.422       .  A
C2319      C2320   1.397       .  A
C2319      C2323   1.518       .  S
C2320      H2324   1.085       .  S
C2321      F2334   1.385       .  S
C2321      F2335   1.383       .  S
C2321      F2336   1.381       .  S
C2323      F2331   1.384       .  S
C2323      F2332   1.383       .  S
C2323      F2333   1.384       .  S
C2337      H2347   1.083       .  S
C2337      C2338   1.408       .  A
C2337      C2342   1.419       .  A
C2338      C2343   1.495       .  S
C2338      C2339   1.413       .  A
C2339      C2340   1.404       .  A
C2339      C2344   1.522       .  S
C2340      H2345   1.082       .  S
C2340      C2341   1.411       .  A
C2341      C2342   1.422       .  A
C2342      C2346   1.517       .  S
C2343      C2348   1.418       .  A
C2343      C2352   1.399       .  A
C2344      F2360   1.382       .  S
C2344      F2361   1.382       .  S
C2344      F2362   1.384       .  S
C2346      F2357   1.385       .  S
C2346      F2358   1.383       .  S
C2346      F2359   1.383       .  S
C2348      C2349   1.415       .  A
C2348      C2353   1.517       .  S
C2349      H2354   1.083       .  S
C2349      C2350   1.406       .  A
C2350      C2351   1.421       .  A
C2351      C2352   1.403       .  A
C2351      C2355   1.517       .  S
C2352      H2356   1.085       .  S
C2353      F2366   1.385       .  S
C2353      F2367   1.382       .  S
C2353      F2368   1.382       .  S
C2355      F2363   1.384       .  S
C2355      F2364   1.377       .  S
C2355      F2365   1.383       .  S
C2369      H2379   1.084       .  S
C2369      C2370   1.400       .  A
C2369      C2374   1.407       .  A
C2370      C2375   1.491       .  S
C2370      C2371   1.420   1_545  A
C2371      C2372   1.413       .  A
C2371      C2376   1.518       .  S
C2372      H2377   1.083       .  S
C2372      C2373   1.403       .  A
C2373      C2374   1.422   1_565  A
C2374      C2378   1.521       .  S
C2375      C2380   1.418       .  A
C2375      C2384   1.397       .  A
C2376      F2392   1.382       .  S
C2376      F2393   1.381   1_565  S
C2376      F2394   1.384       .  S
C2378      F2389   1.382       .  S
C2378      F2390   1.385       .  S
C2378      F2391   1.384   1_545  S
C2380      C2381   1.416       .  A
C2380      C2385   1.520       .  S
C2381      H2386   1.082       .  S
C2381      C2382   1.409       .  A
C2382      C2383   1.429       .  A
C2383      C2384   1.407       .  A
C2383      C2387   1.522       .  S
C2384      H2388   1.083       .  S
C2385      F2398   1.384       .  S
C2385      F2399   1.382       .  S
C2385      F2400   1.381       .  S
C2387      F2395   1.382       .  S
C2387      F2396   1.382       .  S
C2387      F2397   1.385       .  S
C2401      H2411   1.083       .  S
C2401      C2402   1.409       .  A
C2401      C2406   1.416       .  A
C2402      C2407   1.499       .  S
C2402      C2403   1.415       .  A
C2403      C2404   1.411       .  A
C2403      C2408   1.519       .  S
C2404      H2409   1.083       .  S
C2404      C2405   1.408       .  A
C2405      C2406   1.416       .  A
C2406      C2410   1.517       .  S
C2407      C2412   1.419       .  A
C2407      C2416   1.407       .  A
C2408      F2424   1.382       .  S
C2408      F2425   1.382       .  S
C2408      F2426   1.384       .  S
C2410      F2421   1.384       .  S
C2410      F2422   1.382       .  S
C2410      F2423   1.383       .  S
C2412      C2413   1.411       .  A
C2412      C2417   1.521       .  S
C2413      H2418   1.083       .  S
C2413      C2414   1.405       .  A
C2414      C2415   1.414       .  A
C2415      C2416   1.414       .  A
C2415      C2419   1.515       .  S
C2416      H2420   1.082       .  S
C2417      F2430   1.384       .  S
C2417      F2431   1.382       .  S
C2417      F2432   1.382       .  S
C2419      F2427   1.383       .  S
C2419      F2428   1.384       .  S
C2419      F2429   1.384       .  S
C2433      H2443   1.083       .  S
C2433      C2434   1.404       .  A
C2433      C2438   1.410       .  A
C2434      C2439   1.488       .  S
C2434      C2435   1.414       .  A
C2435      C2436   1.406       .  A
C2435      C2440   1.521       .  S
C2436      H2441   1.083       .  S
C2436      C2437   1.411       .  A
C2437      C2438   1.418       .  A
C2438      C2442   1.516       .  S
C2439      C2444   1.415       .  A
C2439      C2448   1.405       .  A
C2440      F2456   1.382       .  S
C2440      F2457   1.381       .  S
C2440      F2458   1.386       .  S
C2442      F2453   1.385       .  S
C2442      F2454   1.383       .  S
C2442      F2455   1.383       .  S
C2444      C2445   1.409   1_455  A
C2444      C2449   1.521   1_455  S
C2445      H2450   1.083       .  S
C2445      C2446   1.406   1_655  A
C2446      C2447   1.416       .  A
C2447      C2448   1.411       .  A
C2447      C2451   1.518       .  S
C2448      H2452   1.083       .  S
C2449      F2462   1.384       .  S
C2449      F2463   1.382       .  S
C2449      F2464   1.381       .  S
C2451      F2459   1.384       .  S
C2451      F2460   1.382       .  S
C2451      F2461   1.385       .  S
C2465      H2475   1.083       .  S
C2465      C2466   1.399       .  A
C2465      C2470   1.407       .  A
C2466      C2471   1.494       .  S
C2466      C2467   1.420       .  A
C2467      C2468   1.415       .  A
C2467      C2472   1.518       .  S
C2468      H2473   1.083       .  S
C2468      C2469   1.404       .  A
C2469      C2470   1.422       .  A
C2470      C2474   1.519       .  S
C2471      C2476   1.418       .  A
C2471      C2480   1.404       .  A
C2472      F2488   1.383       .  S
C2472      F2489   1.383       .  S
C2472      F2490   1.384       .  S
C2474      F2485   1.384       .  S
C2474      F2486   1.381       .  S
C2474      F2487   1.383       .  S
C2476      C2477   1.410       .  A
C2476      C2481   1.518       .  S
C2477      H2482   1.083   1_455  S
C2477      C2478   1.403       .  A
C2478      C2479   1.415       .  A
C2479      C2480   1.411       .  A
C2479      C2483   1.515       .  S
C2480      H2484   1.083       .  S
C2481      F2494   1.385   1_455  S
C2481      F2495   1.382       .  S
C2481      F2496   1.382       .  S
C2483      F2491   1.385       .  S
C2483      F2492   1.382       .  S
C2483      F2493   1.383       .  S
C2497      H2507   1.083       .  S
C2497      C2498   1.406       .  A
C2497      C2502   1.414       .  A
C2498      C2503   1.488       .  S
C2498      C2499   1.410       .  A
C2499      C2500   1.405       .  A
C2499      C2504   1.523       .  S
C2500      H2505   1.082       .  S
C2500      C2501   1.416       .  A
C2501      C2502   1.421       .  A
C2502      C2506   1.517       .  S
C2503      C2508   1.414       .  A
C2503      C2512   1.406       .  A
C2504      F2520   1.382       .  S
C2504      F2521   1.382       .  S
C2504      F2522   1.385       .  S
C2506      F2517   1.385       .  S
C2506      F2518   1.383       .  S
C2506      F2519   1.383       .  S
C2508      C2509   1.405       .  A
C2508      C2513   1.521       .  S
C2509      H2514   1.084       .  S
C2509      C2510   1.406       .  A
C2510      C2511   1.415       .  A
C2511      C2512   1.411       .  A
C2511      C2515   1.517       .  S
C2512      H2516   1.083       .  S
C2513      F2526   1.384       .  S
C2513      F2527   1.382       .  S
C2513      F2528   1.381       .  S
C2515      F2523   1.384       .  S
C2515      F2524   1.383       .  S
C2515      F2525   1.383       .  S
C2529      H2539   1.084       .  S
C2529      C2530   1.399       .  A
C2529      C2534   1.404       .  A
C2530      C2535   1.491       .  S
C2530      C2531   1.419       .  A
C2531      C2532   1.414       .  A
C2531      C2536   1.518       .  S
C2532      H2537   1.083       .  S
C2532      C2533   1.404       .  A
C2533      C2534   1.419       .  A
C2534      C2538   1.516       .  S
C2535      C2540   1.419       .  A
C2535      C2544   1.399       .  A
C2536      F2552   1.383       .  S
C2536      F2553   1.381       .  S
C2536      F2554   1.384       .  S
C2538      F2549   1.383       .  S
C2538      F2550   1.384       .  S
C2538      F2551   1.384       .  S
C2540      C2541   1.413       .  A
C2540      C2545   1.519       .  S
C2541      H2546   1.083       .  S
C2541      C2542   1.404       .  A
C2542      C2543   1.424       .  A
C2543      C2544   1.408       .  A
C2543      C2547   1.518       .  S
C2544      H2548   1.084       .  S
C2545      F2558   1.384       .  S
C2545      F2559   1.382       .  S
C2545      F2560   1.382       .  S
C2547      F2555   1.383       .  S
C2547      F2556   1.383       .  S
C2547      F2557   1.385       .  S
C2561      H2571   1.083       .  S
C2561      C2562   1.404       .  A
C2561      C2566   1.411   1_455  A
C2562      C2567   1.496       .  S
C2562      C2563   1.419       .  A
C2563      C2564   1.413   1_455  A
C2563      C2568   1.520       .  S
C2564      H2569   1.083       .  S
C2564      C2565   1.406       .  A
C2565      C2566   1.416       .  A
C2566      C2570   1.515       .  S
C2567      C2572   1.413       .  A
C2567      C2576   1.407       .  A
C2568      F2584   1.381       .  S
C2568      F2585   1.381       .  S
C2568      F2586   1.385       .  S
C2570      F2581   1.385       .  S
C2570      F2582   1.382       .  S
C2570      F2583   1.379       .  S
C2572      C2573   1.409       .  A
C2572      C2577   1.523       .  S
C2573      H2578   1.082       .  S
C2573      C2574   1.415       .  A
C2574      C2575   1.422       .  A
C2575      C2576   1.418       .  A
C2575      C2579   1.517       .  S
C2576      H2580   1.083       .  S
C2577      F2590   1.385       .  S
C2577      F2591   1.382       .  S
C2577      F2592   1.381       .  S
C2579      F2587   1.384       .  S
C2579      F2588   1.383       .  S
C2579      F2589   1.383       .  S
C2593      H2603   1.082       .  S
C2593      C2594   1.403       .  A
C2593      C2598   1.416       .  A
C2594      C2599   1.506       .  S
C2594      C2595   1.419       .  A
C2595      C2596   1.414       .  A
C2595      C2600   1.521       .  S
C2596      H2601   1.082       .  S
C2596      C2597   1.410       .  A
C2597      C2598   1.429       .  A
C2598      C2602   1.520       .  S
C2599      C2604   1.419       .  A
C2599      C2608   1.401       .  A
C2600      F2616   1.382       .  S
C2600      F2617   1.383       .  S
C2600      F2618   1.384       .  S
C2602      F2613   1.384       .  S
C2602      F2614   1.384       .  S
C2602      F2615   1.383       .  S
C2604      C2605   1.415       .  A
C2604      C2609   1.521       .  S
C2605      H2610   1.081       .  S
C2605      C2606   1.413       .  A
C2606      C2607   1.432       .  A
C2607      C2608   1.414       .  A
C2607      C2611   1.522       .  S
C2608      H2612   1.083       .  S
C2609      F2622   1.385       .  S
C2609      F2623   1.381       .  S
C2609      F2624   1.382       .  S
C2611      F2619   1.383       .  S
C2611      F2620   1.385       .  S
C2611      F2621   1.383       .  S
C2625      H2635   1.083       .  S
C2625      C2626   1.407       .  A
C2625      C2630   1.419       .  A
C2626      C2631   1.509       .  S
C2626      C2627   1.418       .  A
C2627      C2628   1.415       .  A
C2627      C2632   1.518       .  S
C2628      H2633   1.083       .  S
C2628      C2629   1.408       .  A
C2629      C2630   1.425       .  A
C2630      C2634   1.518       .  S
C2631      C2636   1.419       .  A
C2631      C2640   1.403       .  A
C2632      F2648   1.382       .  S
C2632      F2649   1.381       .  S
C2632      F2650   1.385       .  S
C2634      F2645   1.384       .  S
C2634      F2646   1.382       .  S
C2634      F2647   1.383       .  S
C2636      C2637   1.418       .  A
C2636      C2641   1.519       .  S
C2637      H2642   1.083       .  S
C2637      C2638   1.412       .  A
C2638      C2639   1.427       .  A
C2639      C2640   1.418       .  A
C2639      C2643   1.517       .  S
C2640      H2644   1.083       .  S
C2641      F2654   1.385       .  S
C2641      F2655   1.382       .  S
C2641      F2656   1.381       .  S
C2643      F2651   1.385       .  S
C2643      F2652   1.383       .  S
C2643      F2653   1.382       .  S
C2657      H2667   1.083       .  S
C2657      C2658   1.404       .  A
C2657      C2662   1.415       .  A
C2658      C2663   1.502       .  S
C2658      C2659   1.418       .  A
C2659      C2660   1.413       .  A
C2659      C2664   1.519       .  S
C2660      H2665   1.082       .  S
C2660      C2661   1.407       .  A
C2661      C2662   1.425       .  A
C2662      C2666   1.520       .  S
C2663      C2668   1.418       .  A
C2663      C2672   1.403       .  A
C2664      F2680   1.382       .  S
C2664      F2681   1.382       .  S
C2664      F2682   1.384       .  S
C2666      F2677   1.385       .  S
C2666      F2678   1.384       .  S
C2666      F2679   1.383       .  S
C2668      C2669   1.415       .  A
C2668      C2673   1.519       .  S
C2669      H2674   1.083       .  S
C2669      C2670   1.410       .  A
C2670      C2671   1.421       .  A
C2671      C2672   1.413       .  A
C2671      C2675   1.515       .  S
C2672      H2676   1.083       .  S
C2673      F2686   1.384       .  S
C2673      F2687   1.382       .  S
C2673      F2688   1.383       .  S
C2675      F2683   1.384       .  S
C2675      F2684   1.381       .  S
C2675      F2685   1.384       .  S
C2689      H2699   1.083       .  S
C2689      C2690   1.405       .  A
C2689      C2694   1.413       .  A
C2690      C2695   1.504       .  S
C2690      C2691   1.421       .  A
C2691      C2692   1.415       .  A
C2691      C2696   1.518       .  S
C2692      H2697   1.083       .  S
C2692      C2693   1.404       .  A
C2693      C2694   1.418       .  A
C2694      C2698   1.519       .  S
C2695      C2700   1.421       .  A
C2695      C2704   1.405       .  A
C2696      F2712   1.382       .  S
C2696      F2713   1.382       .  S
C2696      F2714   1.385       .  S
C2698      F2709   1.382       .  S
C2698      F2710   1.384       .  S
C2698      F2711   1.384       .  S
C2700      C2701   1.416       .  A
C2700      C2705   1.519       .  S
C2701      H2706   1.083       .  S
C2701      C2702   1.405       .  A
C2702      C2703   1.417       .  A
C2703      C2704   1.414       .  A
C2703      C2707   1.516       .  S
C2704      H2708   1.083       .  S
C2705      F2718   1.385       .  S
C2705      F2719   1.382       .  S
C2705      F2720   1.383       .  S
C2707      F2715   1.382       .  S
C2707      F2716   1.383       .  S
C2707      F2717   1.384       .  S
C2721      H2731   1.083       .  S
C2721      C2722   1.404       .  A
C2721      C2726   1.417       .  A
C2722      C2727   1.509       .  S
C2722      C2723   1.419       .  A
C2723      C2724   1.418       .  A
C2723      C2728   1.518       .  S
C2724      H2729   1.083       .  S
C2724      C2725   1.408       .  A
C2725      C2726   1.425       .  A
C2726      C2730   1.518       .  S
C2727      C2732   1.418       .  A
C2727      C2736   1.405       .  A
C2728      F2744   1.382       .  S
C2728      F2745   1.382       .  S
C2728      F2746   1.384       .  S
C2730      F2741   1.384       .  S
C2730      F2742   1.383       .  S
C2730      F2743   1.383       .  S
C2732      C2733   1.417       .  A
C2732      C2737   1.519       .  S
C2733      H2738   1.082       .  S
C2733      C2734   1.409       .  A
C2734      C2735   1.425       .  A
C2735      C2736   1.419       .  A
C2735      C2739   1.519       .  S
C2736      H2740   1.083       .  S
C2737      F2750   1.384       .  S
C2737      F2751   1.382       .  S
C2737      F2752   1.382       .  S
C2739      F2747   1.385       .  S
C2739      F2748   1.384       .  S
C2739      F2749   1.382       .  S
C2753      H2763   1.083       .  S
C2753      C2754   1.400       .  A
C2753      C2758   1.414       .  A
C2754      C2759   1.505       .  S
C2754      C2755   1.418       .  A
C2755      C2756   1.418       .  A
C2755      C2760   1.519       .  S
C2756      H2761   1.082       .  S
C2756      C2757   1.412       .  A
C2757      C2758   1.428       .  A
C2758      C2762   1.516       .  S
C2759      C2764   1.415       .  A
C2759      C2768   1.401       .  A
C2760      F2776   1.382       .  S
C2760      F2777   1.382       .  S
C2760      F2778   1.384       .  S
C2762      F2773   1.382       .  S
C2762      F2774   1.385       .  S
C2762      F2775   1.383       .  S
C2764      C2765   1.415       .  A
C2764      C2769   1.519       .  S
C2765      H2770   1.081       .  S
C2765      C2766   1.415       .  A
C2766      C2767   1.435       .  A
C2767      C2768   1.418       .  A
C2767      C2771   1.522       .  S
C2768      H2772   1.083       .  S
C2769      F2782   1.384       .  S
C2769      F2783   1.382       .  S
C2769      F2784   1.382       .  S
C2771      F2779   1.385       .  S
C2771      F2780   1.384       .  S
C2771      F2781   1.383       .  S
C2785      H2795   1.083       .  S
C2785      C2786   1.407       .  A
C2785      C2790   1.417       .  A
C2786      C2791   1.506       .  S
C2786      C2787   1.418       .  A
C2787      C2788   1.414       .  A
C2787      C2792   1.519       .  S
C2788      H2793   1.083       .  S
C2788      C2789   1.407       .  A
C2789      C2790   1.422       .  A
C2790      C2794   1.519       .  S
C2791      C2796   1.415       .  A
C2791      C2800   1.401       .  A
C2792      F2808   1.382       .  S
C2792      F2809   1.382       .  S
C2792      F2810   1.384       .  S
C2794      F2805   1.384       .  S
C2794      F2806   1.385       .  S
C2794      F2807   1.381       .  S
C2796      C2797   1.415       .  A
C2796      C2801   1.520       .  S
C2797      H2802   1.081       .  S
C2797      C2798   1.415       .  A
C2798      C2799   1.436       .  A
C2799      C2800   1.418       .  A
C2799      C2803   1.522       .  S
C2800      H2804   1.083       .  S
C2801      F2814   1.384       .  S
C2801      F2815   1.382       .  S
C2801      F2816   1.382       .  S
C2803      F2811   1.385       .  S
C2803      F2812   1.383       .  S
C2803      F2813   1.383       .  S
C2817      H2827   1.083       .  S
C2817      C2818   1.402   1_554  A
C2817      C2822   1.415       .  A
C2818      C2823   1.503       .  S
C2818      C2819   1.417       .  A
C2819      C2820   1.416       .  A
C2819      C2824   1.519       .  S
C2820      H2825   1.082       .  S
C2820      C2821   1.411       .  A
C2821      C2822   1.428   1_556  A
C2822      C2826   1.520       .  S
C2823      C2828   1.420   1_556  A
C2823      C2832   1.408       .  A
C2824      F2840   1.382       .  S
C2824      F2841   1.382   1_556  S
C2824      F2842   1.384       .  S
C2826      F2837   1.385       .  S
C2826      F2838   1.382   1_554  S
C2826      F2839   1.384       .  S
C2828      C2829   1.412       .  A
C2828      C2833   1.519       .  S
C2829      H2834   1.083       .  S
C2829      C2830   1.403   1_554  A
C2830      C2831   1.418       .  A
C2831      C2832   1.416       .  A
C2831      C2835   1.519       .  S
C2832      H2836   1.083       .  S
C2833      F2846   1.384       .  S
C2833      F2847   1.382       .  S
C2833      F2848   1.382       .  S
C2835      F2843   1.384       .  S
C2835      F2844   1.384       .  S
C2835      F2845   1.382       .  S
C2849      H2859   1.083       .  S
C2849      C2850   1.406   1_565  A
C2849      C2854   1.417       .  A
C2850      C2855   1.509       .  S
C2850      C2851   1.421       .  A
C2851      C2852   1.418       .  A
C2851      C2856   1.519       .  S
C2852      H2857   1.083       .  S
C2852      C2853   1.407       .  A
C2853      C2854   1.421   1_545  A
C2854      C2858   1.518       .  S
C2855      C2860   1.422   1_545  A
C2855      C2864   1.405       .  A
C2856      F2872   1.382       .  S
C2856      F2873   1.382       .  S
C2856      F2874   1.385       .  S
C2858      F2869   1.384       .  S
C2858      F2870   1.382       .  S
C2858      F2871   1.384       .  S
C2860      C2861   1.419       .  A
C2860      C2865   1.519       .  S
C2861      H2866   1.083       .  S
C2861      C2862   1.406       .  A
C2862      C2863   1.418   1_565  A
C2863      C2864   1.416       .  A
C2863      C2867   1.515       .  S
C2864      H2868   1.083       .  S
C2865      F2878   1.385       .  S
C2865      F2879   1.382       .  S
C2865      F2880   1.382       .  S
C2867      F2875   1.385       .  S
C2867      F2876   1.383       .  S
C2867      F2877   1.383       .  S
C2881      H2891   1.083       .  S
C2881      C2882   1.406   1_455  A
C2881      C2886   1.417       .  A
C2882      C2887   1.509   1_655  S
C2882      C2883   1.419       .  A
C2883      C2884   1.416       .  A
C2883      C2888   1.518       .  S
C2884      H2889   1.082       .  S
C2884      C2885   1.407       .  A
C2885      C2886   1.424   1_655  A
C2886      C2890   1.521       .  S
C2887      C2892   1.419       .  A
C2887      C2896   1.404   1_455  A
C2888      F2904   1.382       .  S
C2888      F2905   1.382       .  S
C2888      F2906   1.384       .  S
C2890      F2901   1.384       .  S
C2890      F2902   1.385       .  S
C2890      F2903   1.383       .  S
C2892      C2893   1.418       .  A
C2892      C2897   1.519       .  S
C2893      H2898   1.083       .  S
C2893      C2894   1.410       .  A
C2894      C2895   1.426   1_455  A
C2895      C2896   1.418       .  A
C2895      C2899   1.517       .  S
C2896      H2900   1.083       .  S
C2897      F2910   1.384       .  S
C2897      F2911   1.382       .  S
C2897      F2912   1.382       .  S
C2899      F2907   1.385       .  S
C2899      F2908   1.379       .  S
C2899      F2909   1.383       .  S
C2913      H2923   1.082       .  S
C2913      C2914   1.406       .  A
C2913      C2918   1.424       .  A
C2914      C2919   1.515       .  S
C2914      C2915   1.417       .  A
C2915      C2916   1.416       .  A
C2915      C2920   1.520       .  S
C2916      H2921   1.082       .  S
C2916      C2917   1.414       .  A
C2917      C2918   1.431       .  A
C2918      C2922   1.519       .  S
C2919      C2924   1.418       .  A
C2919      C2928   1.403       .  A
C2920      F2936   1.382       .  S
C2920      F2937   1.382       .  S
C2920      F2938   1.384       .  S
C2922      F2933   1.382       .  S
C2922      F2934   1.385       .  S
C2922      F2935   1.383       .  S
C2924      C2925   1.420       .  A
C2924      C2929   1.517       .  S
C2925      H2930   1.082       .  S
C2925      C2926   1.413       .  A
C2926      C2927   1.435       .  A
C2927      C2928   1.420       .  A
C2927      C2931   1.522       .  S
C2928      H2932   1.082       .  S
C2929      F2942   1.384       .  S
C2929      F2943   1.383       .  S
C2929      F2944   1.382       .  S
C2931      F2939   1.383       .  S
C2931      F2940   1.383       .  S
C2931      F2941   1.385       .  S
C2945      H2955   1.083       .  S
C2945      C2946   1.403       .  A
C2945      C2950   1.419       .  A
C2946      C2951   1.513       .  S
C2946      C2947   1.419       .  A
C2947      C2948   1.417       .  A
C2947      C2952   1.518       .  S
C2948      H2953   1.082       .  S
C2948      C2949   1.411       .  A
C2949      C2950   1.432       .  A
C2950      C2954   1.521       .  S
C2951      C2956   1.419       .  A
C2951      C2960   1.404       .  A
C2952      F2968   1.382       .  S
C2952      F2969   1.382       .  S
C2952      F2970   1.385       .  S
C2954      F2965   1.383       .  S
C2954      F2966   1.385       .  S
C2954      F2967   1.383       .  S
C2956      C2957   1.417       .  A
C2956      C2961   1.520       .  S
C2957      H2962   1.082       .  S
C2957      C2958   1.413       .  A
C2958      C2959   1.430       .  A
C2959      C2960   1.420       .  A
C2959      C2963   1.518       .  S
C2960      H2964   1.083       .  S
C2961      F2974   1.385       .  S
C2961      F2975   1.382       .  S
C2961      F2976   1.383       .  S
C2963      F2971   1.382       .  S
C2963      F2972   1.384       .  S
C2963      F2973   1.385       .  S
C2977      H2987   1.083       .  S
C2977      C2978   1.403   1_655  A
C2977      C2982   1.415       .  A
C2978      C2983   1.505       .  S
C2978      C2979   1.418       .  A
C2979      C2980   1.415       .  A
C2979      C2984   1.519       .  S
C2980      H2985   1.083       .  S
C2980      C2981   1.409       .  A
C2981      C2982   1.426   1_455  A
C2982      C2986   1.520       .  S
C2983      C2988   1.419       .  A
C2983      C2992   1.403   1_455  A
C2984      F3000   1.382   1_455  S
C2984      F3001   1.382       .  S
C2984      F3002   1.385       .  S
C2986      F2997   1.382   1_655  S
C2986      F2998   1.384       .  S
C2986      F2999   1.384       .  S
C2988      C2989   1.417       .  A
C2988      C2993   1.520       .  S
C2989      H2994   1.083       .  S
C2989      C2990   1.409   1_455  A
C2990      C2991   1.424       .  A
C2991      C2992   1.415       .  A
C2991      C2995   1.519       .  S
C2992      H2996   1.083       .  S
C2993      F3006   1.384       .  S
C2993      F3007   1.382       .  S
C2993      F3008   1.382       .  S
C2995      F3003   1.382       .  S
C2995      F3004   1.384       .  S
C2995      F3005   1.384       .  S
C3009      H3019   1.083       .  S
C3009      C3010   1.407       .  A
C3009      C3014   1.414       .  A
C3010      C3015   1.495       .  S
C3010      C3011   1.415       .  A
C3011      C3012   1.409       .  A
C3011      C3016   1.519   1_565  S
C3012      H3017   1.083       .  S
C3012      C3013   1.409       .  A
C3013      C3014   1.418       .  A
C3014      C3018   1.517       .  S
C3015      C3020   1.417   1_565  A
C3015      C3024   1.407   1_565  A
C3016      F3032   1.382       .  S
C3016      F3033   1.382       .  S
C3016      F3034   1.385       .  S
C3018      F3029   1.384       .  S
C3018      F3030   1.384       .  S
C3018      F3031   1.383       .  S
C3020      C3021   1.409       .  A
C3020      C3025   1.520   1_545  S
C3021      H3026   1.083       .  S
C3021      C3022   1.405       .  A
C3022      C3023   1.415       .  A
C3023      C3024   1.415       .  A
C3023      C3027   1.515       .  S
C3024      H3028   1.083       .  S
C3025      F3038   1.384       .  S
C3025      F3039   1.382       .  S
C3025      F3040   1.382       .  S
C3027      F3035   1.383       .  S
C3027      F3036   1.383       .  S
C3027      F3037   1.384       .  S
C3041      H3051   1.083       .  S
C3041      C3042   1.404       .  A
C3041      C3046   1.414       .  A
C3042      C3047   1.490       .  S
C3042      C3043   1.410       .  A
C3043      C3044   1.405       .  A
C3043      C3048   1.521       .  S
C3044      H3049   1.081       .  S
C3044      C3045   1.415       .  A
C3045      C3046   1.427       .  A
C3046      C3050   1.520       .  S
C3047      C3052   1.418       .  A
C3047      C3056   1.401       .  A
C3048      F3064   1.382       .  S
C3048      F3065   1.382       .  S
C3048      F3066   1.385       .  S
C3050      F3061   1.383       .  S
C3050      F3062   1.385       .  S
C3050      F3063   1.383       .  S
C3052      C3053   1.412       .  A
C3052      C3057   1.518       .  S
C3053      H3058   1.083       .  S
C3053      C3054   1.403       .  A
C3054      C3055   1.419       .  A
C3055      C3056   1.406       .  A
C3055      C3059   1.518       .  S
C3056      H3060   1.083       .  S
C3057      F3070   1.384       .  S
C3057      F3071   1.382       .  S
C3057      F3072   1.382       .  S
C3059      F3067   1.382       .  S
C3059      F3068   1.383       .  S
C3059      F3069   1.385       .  S
C3073      H3083   1.083       .  S
C3073      C3074   1.402       .  A
C3073      C3078   1.407       .  A
C3074      C3079   1.490       .  S
C3074      C3075   1.418       .  A
C3075      C3076   1.409       .  A
C3075      C3080   1.518       .  S
C3076      H3081   1.083       .  S
C3076      C3077   1.403       .  A
C3077      C3078   1.419       .  A
C3078      C3082   1.518       .  S
C3079      C3084   1.412       .  A
C3079      C3088   1.405       .  A
C3080      F3096   1.382       .  S
C3080      F3097   1.382       .  S
C3080      F3098   1.385       .  S
C3082      F3093   1.383       .  S
C3082      F3094   1.385       .  S
C3082      F3095   1.382       .  S
C3084      C3085   1.405       .  A
C3084      C3089   1.523       .  S
C3085      H3090   1.083   1_455  S
C3085      C3086   1.413       .  A
C3086      C3087   1.420       .  A
C3087      C3088   1.415       .  A
C3087      C3091   1.515       .  S
C3088      H3092   1.082       .  S
C3089      F3102   1.384   1_455  S
C3089      F3103   1.382   1_455  S
C3089      F3104   1.383       .  S
C3091      F3099   1.384       .  S
C3091      F3100   1.379       .  S
C3091      F3101   1.383       .  S
C3105      H3115   1.084       .  S
C3105      C3106   1.396       .  A
C3105      C3110   1.406       .  A
C3106      C3111   1.493       .  S
C3106      C3107   1.418       .  A
C3107      C3108   1.417       .  A
C3107      C3112   1.516       .  S
C3108      H3113   1.083       .  S
C3108      C3109   1.406       .  A
C3109      C3110   1.432       .  A
C3110      C3114   1.526       .  S
C3111      C3116   1.421       .  A
C3111      C3120   1.399       .  A
C3112      F3128   1.383       .  S
C3112      F3129   1.382       .  S
C3112      F3130   1.384       .  S
C3114      F3125   1.381       .  S
C3114      F3126   1.385       .  S
C3114      F3127   1.383       .  S
C3116      C3117   1.415       .  A
C3116      C3121   1.519       .  S
C3117      H3122   1.083       .  S
C3117      C3118   1.404       .  A
C3118      C3119   1.420       .  A
C3119      C3120   1.407       .  A
C3119      C3123   1.519       .  S
C3120      H3124   1.083       .  S
C3121      F3134   1.385       .  S
C3121      F3135   1.382       .  S
C3121      F3136   1.382       .  S
C3123      F3131   1.385       .  S
C3123      F3132   1.383       .  S
C3123      F3133   1.381       .  S
C3137      H3147   1.083       .  S
C3137      C3138   1.405       .  A
C3137      C3142   1.413       .  A
C3138      C3143   1.489       .  S
C3138      C3139   1.411       .  A
C3139      C3140   1.404       .  A
C3139      C3144   1.521       .  S
C3140      H3145   1.082       .  S
C3140      C3141   1.413       .  A
C3141      C3142   1.422       .  A
C3142      C3146   1.518       .  S
C3143      C3148   1.417       .  A
C3143      C3152   1.403       .  A
C3144      F3160   1.382       .  S
C3144      F3161   1.382       .  S
C3144      F3162   1.385       .  S
C3146      F3157   1.385       .  S
C3146      F3158   1.383       .  S
C3146      F3159   1.383       .  S
C3148      C3149   1.408       .  A
C3148      C3153   1.520       .  S
C3149      H3154   1.084       .  S
C3149      C3150   1.404       .  A
C3150      C3151   1.415       .  A
C3151      C3152   1.409       .  A
C3151      C3155   1.515   1_565  S
C3152      H3156   1.083       .  S
C3153      F3166   1.385       .  S
C3153      F3167   1.382       .  S
C3153      F3168   1.382       .  S
C3155      F3163   1.383       .  S
C3155      F3164   1.382       .  S
C3155      F3165   1.385       .  S
C3169      H3179   1.083       .  S
C3169      C3170   1.406       .  A
C3169      C3174   1.414       .  A
C3170      C3175   1.492       .  S
C3170      C3171   1.415       .  A
C3171      C3172   1.405       .  A
C3171      C3176   1.521       .  S
C3172      H3177   1.084       .  S
C3172      C3173   1.408       .  A
C3173      C3174   1.420       .  A
C3174      C3178   1.518       .  S
C3175      C3180   1.420   1_565  A
C3175      C3184   1.399       .  A
C3176      F3192   1.382       .  S
C3176      F3193   1.383   1_565  S
C3176      F3194   1.384       .  S
C3178      F3189   1.384       .  S
C3178      F3190   1.384       .  S
C3178      F3191   1.383       .  S
C3180      C3181   1.414       .  A
C3180      C3185   1.517       .  S
C3181      H3186   1.083       .  S
C3181      C3182   1.403       .  A
C3182      C3183   1.420       .  A
C3183      C3184   1.404   1_545  A
C3183      C3187   1.518       .  S
C3184      H3188   1.084       .  S
C3185      F3198   1.385       .  S
C3185      F3199   1.382   1_545  S
C3185      F3200   1.383       .  S
C3187      F3195   1.382   1_545  S
C3187      F3196   1.384       .  S
C3187      F3197   1.385   1_545  S
C3201      H3211   1.083       .  S
C3201      C3202   1.409       .  A
C3201      C3206   1.415       .  A
C3202      C3207   1.495       .  S
C3202      C3203   1.414       .  A
C3203      C3204   1.407       .  A
C3203      C3208   1.522       .  S
C3204      H3209   1.083       .  S
C3204      C3205   1.410       .  A
C3205      C3206   1.415       .  A
C3206      C3210   1.515       .  S
C3207      C3212   1.417       .  A
C3207      C3216   1.408       .  A
C3208      F3224   1.381       .  S
C3208      F3225   1.383       .  S
C3208      F3226   1.385       .  S
C3210      F3221   1.383       .  S
C3210      F3222   1.384       .  S
C3210      F3223   1.383       .  S
C3212      C3213   1.407       .  A
C3212      C3217   1.520       .  S
C3213      H3218   1.083       .  S
C3213      C3214   1.406       .  A
C3214      C3215   1.413       .  A
C3215      C3216   1.413       .  A
C3215      C3219   1.516       .  S
C3216      H3220   1.083       .  S
C3217      F3230   1.385       .  S
C3217      F3231   1.382       .  S
C3217      F3232   1.382       .  S
C3219      F3227   1.385       .  S
C3219      F3228   1.383       .  S
C3219      F3229   1.383       .  S
C3233      H3243   1.083       .  S
C3233      C3234   1.395       .  A
C3233      C3238   1.410       .  A
C3234      C3239   1.491       .  S
C3234      C3235   1.415       .  A
C3235      C3236   1.410       .  A
C3235      C3240   1.518       .  S
C3236      H3241   1.082       .  S
C3236      C3237   1.409       .  A
C3237      C3238   1.439       .  A
C3238      C3242   1.525       .  S
C3239      C3244   1.418       .  A
C3239      C3248   1.404       .  A
C3240      F3256   1.382       .  S
C3240      F3257   1.383       .  S
C3240      F3258   1.384       .  S
C3242      F3253   1.383       .  S
C3242      F3254   1.386       .  S
C3242      F3255   1.383       .  S
C3244      C3245   1.409       .  A
C3244      C3249   1.519       .  S
C3245      H3250   1.083       .  S
C3245      C3246   1.403       .  A
C3246      C3247   1.415       .  A
C3247      C3248   1.407       .  A
C3247      C3251   1.517       .  S
C3248      H3252   1.084       .  S
C3249      F3262   1.385       .  S
C3249      F3263   1.383       .  S
C3249      F3264   1.383       .  S
C3251      F3259   1.383       .  S
C3251      F3260   1.383       .  S
C3251      F3261   1.382       .  S
C3265      H3275   1.083       .  S
C3265      C3266   1.405       .  A
C3265      C3270   1.412       .  A
C3266      C3271   1.498       .  S
C3266      C3267   1.419       .  A
C3267      C3268   1.411       .  A
C3267      C3272   1.520       .  S
C3268      H3273   1.084       .  S
C3268      C3269   1.406       .  A
C3269      C3270   1.415       .  A
C3270      C3274   1.517       .  S
C3271      C3276   1.416       .  A
C3271      C3280   1.407       .  A
C3272      F3288   1.382       .  S
C3272      F3289   1.383       .  S
C3272      F3290   1.384       .  S
C3274      F3285   1.384       .  S
C3274      F3286   1.383       .  S
C3274      F3287   1.383       .  S
C3276      C3277   1.408       .  A
C3276      C3281   1.520       .  S
C3277      H3282   1.083       .  S
C3277      C3278   1.408       .  A
C3278      C3279   1.420       .  A
C3279      C3280   1.415       .  A
C3279      C3283   1.517       .  S
C3280      H3284   1.083       .  S
C3281      F3294   1.385       .  S
C3281      F3295   1.381       .  S
C3281      F3296   1.383       .  S
C3283      F3291   1.385       .  S
C3283      F3292   1.383       .  S
C3283      F3293   1.383       .  S
C3297      H3307   1.083       .  S
C3297      C3298   1.402       .  A
C3297      C3302   1.417       .  A
C3298      C3303   1.504       .  S
C3298      C3299   1.416   1_455  A
C3299      C3300   1.415       .  A
C3299      C3304   1.520       .  S
C3300      H3305   1.082       .  S
C3300      C3301   1.412   1_655  A
C3301      C3302   1.430       .  A
C3302      C3306   1.520       .  S
C3303      C3308   1.415   1_455  A
C3303      C3312   1.401       .  A
C3304      F3320   1.382       .  S
C3304      F3321   1.382       .  S
C3304      F3322   1.384       .  S
C3306      F3317   1.385       .  S
C3306      F3318   1.383       .  S
C3306      F3319   1.383       .  S
C3308      C3309   1.414       .  A
C3308      C3313   1.520       .  S
C3309      H3314   1.081       .  S
C3309      C3310   1.416   1_655  A
C3310      C3311   1.432       .  A
C3311      C3312   1.417       .  A
C3311      C3315   1.520       .  S
C3312      H3316   1.083       .  S
C3313      F3326   1.385       .  S
C3313      F3327   1.382   1_655  S
C3313      F3328   1.382       .  S
C3315      F3323   1.385       .  S
C3315      F3324   1.383       .  S
C3315      F3325   1.383       .  S
C3329      H3339   1.084       .  S
C3329      C3330   1.397       .  A
C3329      C3334   1.402       .  A
C3330      C3335   1.487       .  S
C3330      C3331   1.418       .  A
C3331      C3332   1.413       .  A
C3331      C3336   1.518       .  S
C3332      H3337   1.083       .  S
C3332      C3333   1.405       .  A
C3333      C3334   1.423       .  A
C3334      C3338   1.520   1_455  S
C3335      C3340   1.413       .  A
C3335      C3344   1.405       .  A
C3336      F3352   1.382       .  S
C3336      F3353   1.382       .  S
C3336      F3354   1.385       .  S
C3338      F3349   1.385       .  S
C3338      F3350   1.383       .  S
C3338      F3351   1.383       .  S
C3340      C3341   1.405       .  A
C3340      C3345   1.522       .  S
C3341      H3346   1.083       .  S
C3341      C3342   1.410       .  A
C3342      C3343   1.420       .  A
C3343      C3344   1.413       .  A
C3343      C3347   1.518       .  S
C3344      H3348   1.083       .  S
C3345      F3358   1.384       .  S
C3345      F3359   1.382       .  S
C3345      F3360   1.383       .  S
C3347      F3355   1.384       .  S
C3347      F3356   1.383       .  S
C3347      F3357   1.384       .  S
C3361      H3371   1.083       .  S
C3361      C3362   1.397       .  A
C3361      C3366   1.414       .  A
C3362      C3367   1.501       .  S
C3362      C3363   1.414   1_455  A
C3363      C3364   1.415       .  A
C3363      C3368   1.520       .  S
C3364      H3369   1.081       .  S
C3364      C3365   1.415   1_655  A
C3365      C3366   1.438       .  A
C3366      C3370   1.521       .  S
C3367      C3372   1.418       .  A
C3367      C3376   1.401   1_455  A
C3368      F3384   1.382       .  S
C3368      F3385   1.383       .  S
C3368      F3386   1.384       .  S
C3370      F3381   1.379       .  S
C3370      F3382   1.385       .  S
C3370      F3383   1.383       .  S
C3372      C3373   1.413       .  A
C3372      C3377   1.518       .  S
C3373      H3378   1.082       .  S
C3373      C3374   1.407   1_455  A
C3374      C3375   1.425       .  A
C3375      C3376   1.412       .  A
C3375      C3379   1.515       .  S
C3376      H3380   1.083       .  S
C3377      F3390   1.385       .  S
C3377      F3391   1.382       .  S
C3377      F3392   1.382       .  S
C3379      F3387   1.382       .  S
C3379      F3388   1.383       .  S
C3379      F3389   1.385       .  S
C3393      H3403   1.083       .  S
C3393      C3394   1.406       .  A
C3393      C3398   1.413       .  A
C3394      C3399   1.485       .  S
C3394      C3395   1.411       .  A
C3395      C3396   1.402       .  A
C3395      C3400   1.521       .  S
C3396      H3401   1.083       .  S
C3396      C3397   1.408       .  A
C3397      C3398   1.418       .  A
C3398      C3402   1.517       .  S
C3399      C3404   1.416       .  A
C3399      C3408   1.403       .  A
C3400      F3416   1.382   1_554  S
C3400      F3417   1.382   1_554  S
C3400      F3418   1.384       .  S
C3402      F3413   1.385       .  S
C3402      F3414   1.383       .  S
C3402      F3415   1.382       .  S
C3404      C3405   1.407   1_554  A
C3404      C3409   1.520       .  S
C3405      H3410   1.084   1_455  S
C3405      C3406   1.404       .  A
C3406      C3407   1.414       .  A
C3407      C3408   1.407   1_556  A
C3407      C3411   1.516       .  S
C3408      H3412   1.083       .  S
C3409      F3422   1.385   1_455  S
C3409      F3423   1.382       .  S
C3409      F3424   1.382       .  S
C3411      F3419   1.383       .  S
C3411      F3420   1.379       .  S
C3411      F3421   1.384       .  S
C3425      H3435   1.083       .  S
C3425      C3426   1.405       .  A
C3425      C3430   1.413       .  A
C3426      C3431   1.499       .  S
C3426      C3427   1.419   1_545  A
C3427      C3428   1.414       .  A
C3427      C3432   1.519       .  S
C3428      H3433   1.083       .  S
C3428      C3429   1.404   1_565  A
C3429      C3430   1.417       .  A
C3430      C3434   1.516       .  S
C3431      C3436   1.420       .  A
C3431      C3440   1.405       .  A
C3432      F3448   1.382       .  S
C3432      F3449   1.381       .  S
C3432      F3450   1.385       .  S
C3434      F3445   1.385       .  S
C3434      F3446   1.383       .  S
C3434      F3447   1.382       .  S
C3436      C3437   1.414       .  A
C3436      C3441   1.520       .  S
C3437      H3442   1.083       .  S
C3437      C3438   1.404       .  A
C3438      C3439   1.417       .  A
C3439      C3440   1.414       .  A
C3439      C3443   1.516       .  S
C3440      H3444   1.083       .  S
C3441      F3454   1.385       .  S
C3441      F3455   1.382       .  S
C3441      F3456   1.381       .  S
C3443      F3451   1.385   1_545  S
C3443      F3452   1.383       .  S
C3443      F3453   1.383   1_545  S
C3457      H3467   1.083       .  S
C3457      C3458   1.405       .  A
C3457      C3462   1.410       .  A
C3458      C3463   1.486       .  S
C3458      C3459   1.415   1_565  A
C3459      C3460   1.406       .  A
C3459      C3464   1.520       .  S
C3460      H3465   1.084       .  S
C3460      C3461   1.406   1_545  A
C3461      C3462   1.414       .  A
C3462      C3466   1.516       .  S
C3463      C3468   1.419       .  A
C3463      C3472   1.399       .  A
C3464      F3480   1.382       .  S
C3464      F3481   1.383       .  S
C3464      F3482   1.385       .  S
C3466      F3477   1.383       .  S
C3466      F3478   1.385       .  S
C3466      F3479   1.382       .  S
C3468      C3469   1.410       .  A
C3468      C3473   1.519       .  S
C3469      H3474   1.083       .  S
C3469      C3470   1.403       .  A
C3470      C3471   1.419       .  A
C3471      C3472   1.403       .  A
C3471      C3475   1.518       .  S
C3472      H3476   1.084       .  S
C3473      F3486   1.385       .  S
C3473      F3487   1.382       .  S
C3473      F3488   1.383       .  S
C3475      F3483   1.383       .  S
C3475      F3484   1.383       .  S
C3475      F3485   1.384   1_565  S
C3489      H3499   1.083       .  S
C3489      C3490   1.404       .  A
C3489      C3494   1.408       .  A
C3490      C3495   1.483       .  S
C3490      C3491   1.414       .  A
C3491      C3492   1.406   1_545  A
C3491      C3496   1.521   1_545  S
C3492      H3497   1.083       .  S
C3492      C3493   1.404   1_565  A
C3493      C3494   1.414       .  A
C3494      C3498   1.517       .  S
C3495      C3500   1.418       .  A
C3495      C3504   1.399       .  A
C3496      F3512   1.382       .  S
C3496      F3513   1.383       .  S
C3496      F3514   1.384       .  S
C3498      F3509   1.384       .  S
C3498      F3510   1.385       .  S
C3498      F3511   1.382       .  S
C3500      C3501   1.407       .  A
C3500      C3505   1.519       .  S
C3501      H3506   1.083       .  S
C3501      C3502   1.403       .  A
C3502      C3503   1.421       .  A
C3503      C3504   1.403       .  A
C3503      C3507   1.520       .  S
C3504      H3508   1.083       .  S
C3505      F3518   1.385       .  S
C3505      F3519   1.382       .  S
C3505      F3520   1.383       .  S
C3507      F3515   1.382       .  S
C3507      F3516   1.384       .  S
C3507      F3517   1.385       .  S
C3521      H3531   1.083       .  S
C3521      C3522   1.406       .  A
C3521      C3526   1.416       .  A
C3522      C3527   1.506       .  S
C3522      C3523   1.419   1_556  A
C3523      C3524   1.415       .  A
C3523      C3528   1.519       .  S
C3524      H3529   1.083       .  S
C3524      C3525   1.407   1_554  A
C3525      C3526   1.419       .  A
C3526      C3530   1.517       .  S
C3527      C3532   1.420   1_556  A
C3527      C3536   1.406       .  A
C3528      F3544   1.382       .  S
C3528      F3545   1.383       .  S
C3528      F3546   1.384       .  S
C3530      F3541   1.384       .  S
C3530      F3542   1.384       .  S
C3530      F3543   1.382       .  S
C3532      C3533   1.414       .  A
C3532      C3537   1.518       .  S
C3533      H3538   1.083       .  S
C3533      C3534   1.404       .  A
C3534      C3535   1.419   1_554  A
C3535      C3536   1.416       .  A
C3535      C3539   1.517       .  S
C3536      H3540   1.083       .  S
C3537      F3550   1.385       .  S
C3537      F3551   1.382       .  S
C3537      F3552   1.383       .  S
C3539      F3547   1.385       .  S
C3539      F3548   1.383       .  S
C3539      F3549   1.382       .  S
C3553      H3563   1.083       .  S
C3553      C3554   1.398       .  A
C3553      C3558   1.407       .  A
C3554      C3559   1.491   1_545  S
C3554      C3555   1.420       .  A
C3555      C3556   1.412       .  A
C3555      C3560   1.517       .  S
C3556      H3561   1.083       .  S
C3556      C3557   1.401       .  A
C3557      C3558   1.425       .  A
C3558      C3562   1.520       .  S
C3559      C3564   1.418       .  A
C3559      C3568   1.401       .  A
C3560      F3576   1.382       .  S
C3560      F3577   1.383       .  S
C3560      F3578   1.384       .  S
C3562      F3573   1.382       .  S
C3562      F3574   1.384       .  S
C3562      F3575   1.382       .  S
C3564      C3565   1.411       .  A
C3564      C3569   1.519       .  S
C3565      H3570   1.083       .  S
C3565      C3566   1.403       .  A
C3566      C3567   1.418       .  A
C3567      C3568   1.409       .  A
C3567      C3571   1.516   1_554  S
C3568      H3572   1.083   1_565  S
C3569      F3582   1.384       .  S
C3569      F3583   1.383       .  S
C3569      F3584   1.383   1_565  S
C3571      F3579   1.385       .  S
C3571      F3580   1.382       .  S
C3571      F3581   1.382       .  S
C3585      H3595   1.083       .  S
C3585      C3586   1.404   1_554  A
C3585      C3590   1.419       .  A
C3586      C3591   1.504       .  S
C3586      C3587   1.415       .  A
C3587      C3588   1.412       .  A
C3587      C3592   1.520       .  S
C3588      H3593   1.081       .  S
C3588      C3589   1.413       .  A
C3589      C3590   1.430   1_556  A
C3590      C3594   1.519       .  S
C3591      C3596   1.419   1_556  A
C3591      C3600   1.402       .  A
C3592      F3608   1.381       .  S
C3592      F3609   1.382   1_556  S
C3592      F3610   1.385       .  S
C3594      F3605   1.383       .  S
C3594      F3606   1.385       .  S
C3594      F3607   1.380   1_554  S
C3596      C3597   1.418       .  A
C3596      C3601   1.519       .  S
C3597      H3602   1.083       .  S
C3597      C3598   1.410   1_554  A
C3598      C3599   1.425       .  A
C3599      C3600   1.414       .  A
C3599      C3603   1.517       .  S
C3600      H3604   1.083       .  S
C3601      F3614   1.384       .  S
C3601      F3615   1.382       .  S
C3601      F3616   1.382       .  S
C3603      F3611   1.383       .  S
C3603      F3612   1.383       .  S
C3603      F3613   1.385       .  S
C3617      H3627   1.083   1_554  S
C3617      C3618   1.403       .  A
C3617      C3622   1.409       .  A
C3618      C3623   1.488       .  S
C3618      C3619   1.421       .  A
C3619      C3620   1.408       .  A
C3619      C3624   1.521       .  S
C3620      H3625   1.083       .  S
C3620      C3621   1.400       .  A
C3621      C3622   1.415       .  A
C3622      C3626   1.517       .  S
C3623      C3628   1.413   1_554  A
C3623      C3632   1.404       .  A
C3624      F3640   1.382       .  S
C3624      F3641   1.383       .  S
C3624      F3642   1.384       .  S
C3626      F3637   1.384       .  S
C3626      F3638   1.384   1_554  S
C3626      F3639   1.382       .  S
C3628      C3629   1.406       .  A
C3628      C3633   1.519       .  S
C3629      H3634   1.083       .  S
C3629      C3630   1.409       .  A
C3630      C3631   1.417   1_556  A
C3631      C3632   1.410       .  A
C3631      C3635   1.516       .  S
C3632      H3636   1.083       .  S
C3633      F3646   1.385       .  S
C3633      F3647   1.383       .  S
C3633      F3648   1.383       .  S
C3635      F3643   1.384       .  S
C3635      F3644   1.383       .  S
C3635      F3645   1.383       .  S
C3649      H3659   1.083       .  S
C3649      C3650   1.404   1_565  A
C3649      C3654   1.412       .  A
C3650      C3655   1.499       .  S
C3650      C3651   1.418       .  A
C3651      C3652   1.413       .  A
C3651      C3656   1.520       .  S
C3652      H3657   1.083       .  S
C3652      C3653   1.409       .  A
C3653      C3654   1.419   1_545  A
C3654      C3658   1.517       .  S
C3655      C3660   1.415   1_545  A
C3655      C3664   1.401       .  A
C3656      F3672   1.382       .  S
C3656      F3673   1.383       .  S
C3656      F3674   1.385       .  S
C3658      F3669   1.384       .  S
C3658      F3670   1.382       .  S
C3658      F3671   1.384       .  S
C3660      C3661   1.412       .  A
C3660      C3665   1.521       .  S
C3661      H3666   1.081       .  S
C3661      C3662   1.416   1_565  A
C3662      C3663   1.431       .  A
C3663      C3664   1.415       .  A
C3663      C3667   1.520       .  S
C3664      H3668   1.083       .  S
C3665      F3678   1.384       .  S
C3665      F3679   1.382       .  S
C3665      F3680   1.382   1_565  S
C3667      F3675   1.384       .  S
C3667      F3676   1.383       .  S
C3667      F3677   1.383       .  S
C3681      H3691   1.083   1_655  S
C3681      C3682   1.403   1_655  A
C3681      C3686   1.404       .  A
C3682      C3687   1.484       .  S
C3682      C3683   1.418   1_455  A
C3683      C3684   1.407       .  A
C3683      C3688   1.519   1_655  S
C3684      H3689   1.083   1_565  S
C3684      C3685   1.401       .  A
C3685      C3686   1.412       .  A
C3686      C3690   1.517       .  S
C3687      C3692   1.411       .  A
C3687      C3696   1.404       .  A
C3688      F3704   1.382   1_565  S
C3688      F3705   1.382       .  S
C3688      F3706   1.385   1_465  S
C3690      F3701   1.384       .  S
C3690      F3702   1.383       .  S
C3690      F3703   1.383       .  S
C3692      C3693   1.404       .  A
C3692      C3697   1.520       .  S
C3693      H3698   1.083       .  S
C3693      C3694   1.410       .  A
C3694      C3695   1.419       .  A
C3695      C3696   1.410       .  A
C3695      C3699   1.517       .  S
C3696      H3700   1.083       .  S
C3697      F3710   1.385       .  S
C3697      F3711   1.382   1_455  S
C3697      F3712   1.383   1_455  S
C3699      F3707   1.385       .  S
C3699      F3708   1.383       .  S
C3699      F3709   1.382       .  S
C3713      H3723   1.083       .  S
C3713      C3714   1.402       .  A
C3713      C3718   1.407   1_455  A
C3714      C3719   1.489       .  S
C3714      C3715   1.418       .  A
C3715      C3716   1.411   1_455  A
C3715      C3720   1.521       .  S
C3716      H3721   1.084       .  S
C3716      C3717   1.404       .  A
C3717      C3718   1.414       .  A
C3718      C3722   1.517       .  S
C3719      C3724   1.412       .  A
C3719      C3728   1.407       .  A
C3720      F3736   1.382       .  S
C3720      F3737   1.382       .  S
C3720      F3738   1.384   1_545  S
C3722      F3733   1.384       .  S
C3722      F3734   1.383       .  S
C3722      F3735   1.383       .  S
C3724      C3725   1.405       .  A
C3724      C3729   1.520       .  S
C3725      H3730   1.084       .  S
C3725      C3726   1.408       .  A
C3726      C3727   1.418       .  A
C3727      C3728   1.413       .  A
C3727      C3731   1.518       .  S
C3728      H3732   1.083       .  S
C3729      F3742   1.384       .  S
C3729      F3743   1.382       .  S
C3729      F3744   1.382   1_455  S
C3731      F3739   1.383       .  S
C3731      F3740   1.382       .  S
C3731      F3741   1.384       .  S
C3745      H3755   1.083       .  S
C3745      C3746   1.403       .  A
C3745      C3750   1.412       .  A
C3746      C3751   1.501       .  S
C3746      C3747   1.420   1_545  A
C3747      C3748   1.417       .  A
C3747      C3752   1.519       .  S
C3748      H3753   1.083       .  S
C3748      C3749   1.406   1_565  A
C3749      C3750   1.418       .  A
C3750      C3754   1.517       .  S
C3751      C3756   1.417   1_545  A
C3751      C3760   1.403       .  A
C3752      F3768   1.383       .  S
C3752      F3769   1.383       .  S
C3752      F3770   1.384       .  S
C3754      F3765   1.384       .  S
C3754      F3766   1.382       .  S
C3754      F3767   1.383       .  S
C3756      C3757   1.412   1_565  A
C3756      C3761   1.518       .  S
C3757      H3762   1.083   1_545  S
C3757      C3758   1.408       .  A
C3758      C3759   1.426       .  A
C3759      C3760   1.415       .  A
C3759      C3763   1.520       .  S
C3760      H3764   1.083       .  S
C3761      F3774   1.384       .  S
C3761      F3775   1.382   1_565  S
C3761      F3776   1.383       .  S
C3763      F3771   1.385       .  S
C3763      F3772   1.383       .  S
C3763      F3773   1.383       .  S
C3777      H3787   1.083       .  S
C3777      C3778   1.405       .  A
C3777      C3782   1.411       .  A
C3778      C3783   1.493       .  S
C3778      C3779   1.418       .  A
C3779      C3780   1.409       .  A
C3779      C3784   1.521       .  S
C3780      H3785   1.084   1_565  S
C3780      C3781   1.406       .  A
C3781      C3782   1.414       .  A
C3782      C3786   1.516       .  S
C3783      C3788   1.413       .  A
C3783      C3792   1.406       .  A
C3784      F3800   1.382       .  S
C3784      F3801   1.383       .  S
C3784      F3802   1.384   1_565  S
C3786      F3797   1.384       .  S
C3786      F3798   1.383       .  S
C3786      F3799   1.383       .  S
C3788      C3789   1.405       .  A
C3788      C3793   1.522       .  S
C3789      H3794   1.082       .  S
C3789      C3790   1.414       .  A
C3790      C3791   1.422       .  A
C3791      C3792   1.415       .  A
C3791      C3795   1.517       .  S
C3792      H3796   1.083       .  S
C3793      F3806   1.385       .  S
C3793      F3807   1.381       .  S
C3793      F3808   1.382       .  S
C3795      F3803   1.385       .  S
C3795      F3804   1.383       .  S
C3795      F3805   1.383       .  S
C3809      H3819   1.083       .  S
C3809      C3810   1.403       .  A
C3809      C3814   1.417       .  A
C3810      C3815   1.511       .  S
C3810      C3811   1.420       .  A
C3811      C3812   1.418       .  A
C3811      C3816   1.518       .  S
C3812      H3817   1.082       .  S
C3812      C3813   1.410       .  A
C3813      C3814   1.429       .  A
C3814      C3818   1.521       .  S
C3815      C3820   1.419       .  A
C3815      C3824   1.401       .  A
C3816      F3832   1.382       .  S
C3816      F3833   1.381       .  S
C3816      F3834   1.385       .  S
C3818      F3829   1.381       .  S
C3818      F3830   1.385       .  S
C3818      F3831   1.384       .  S
C3820      C3821   1.420       .  A
C3820      C3825   1.518       .  S
C3821      H3826   1.082       .  S
C3821      C3822   1.412       .  A
C3822      C3823   1.432       .  A
C3823      C3824   1.418       .  A
C3823      C3827   1.518       .  S
C3824      H3828   1.083       .  S
C3825      F3838   1.384       .  S
C3825      F3839   1.382       .  S
C3825      F3840   1.382       .  S
C3827      F3835   1.382       .  S
C3827      F3836   1.380       .  S
C3827      F3837   1.385       .  S
C3841      H3851   1.083       .  S
C3841      C3842   1.400       .  A
C3841      C3846   1.410       .  A
C3842      C3847   1.493       .  S
C3842      C3843   1.416       .  A
C3843      C3844   1.411       .  A
C3843      C3848   1.518       .  S
C3844      H3849   1.083       .  S
C3844      C3845   1.407       .  A
C3845      C3846   1.425       .  A
C3846      C3850   1.520       .  S
C3847      C3852   1.413       .  A
C3847      C3856   1.400       .  A
C3848      F3864   1.382       .  S
C3848      F3865   1.383       .  S
C3848      F3866   1.384       .  S
C3850      F3861   1.385       .  S
C3850      F3862   1.382       .  S
C3850      F3863   1.384       .  S
C3852      C3853   1.407       .  A
C3852      C3857   1.519       .  S
C3853      H3858   1.081       .  S
C3853      C3854   1.411       .  A
C3854      C3855   1.432       .  A
C3855      C3856   1.413       .  A
C3855      C3859   1.522       .  S
C3856      H3860   1.083       .  S
C3857      F3870   1.385       .  S
C3857      F3871   1.382       .  S
C3857      F3872   1.382       .  S
C3859      F3867   1.383       .  S
C3859      F3868   1.383       .  S
C3859      F3869   1.385       .  S
C3873      H3883   1.083       .  S
C3873      C3874   1.399       .  A
C3873      C3878   1.404       .  A
C3874      C3879   1.484   1_545  S
C3874      C3875   1.419       .  A
C3875      C3876   1.411       .  A
C3875      C3880   1.519       .  S
C3876      H3881   1.083       .  S
C3876      C3877   1.401       .  A
C3877      C3878   1.420       .  A
C3878      C3882   1.521       .  S
C3879      C3884   1.418       .  A
C3879      C3888   1.399       .  A
C3880      F3896   1.382       .  S
C3880      F3897   1.381       .  S
C3880      F3898   1.384       .  S
C3882      F3893   1.382       .  S
C3882      F3894   1.385       .  S
C3882      F3895   1.383       .  S
C3884      C3885   1.411       .  A
C3884      C3889   1.519       .  S
C3885      H3890   1.083       .  S
C3885      C3886   1.404       .  A
C3886      C3887   1.418       .  A
C3887      C3888   1.402       .  A
C3887      C3891   1.517   1_556  S
C3888      H3892   1.085   1_565  S
C3889      F3902   1.384       .  S
C3889      F3903   1.382       .  S
C3889      F3904   1.381   1_565  S
C3891      F3899   1.385       .  S
C3891      F3900   1.383       .  S
C3891      F3901   1.383       .  S
C3905      H3915   1.083       .  S
C3905      C3906   1.400       .  A
C3905      C3910   1.410       .  A
C3906      C3911   1.494       .  S
C3906      C3907   1.418       .  A
C3907      C3908   1.411       .  A
C3907      C3912   1.519       .  S
C3908      H3913   1.083       .  S
C3908      C3909   1.406       .  A
C3909      C3910   1.428       .  A
C3910      C3914   1.521       .  S
C3911      C3916   1.416   1_556  A
C3911      C3920   1.407       .  A
C3912      F3928   1.382       .  S
C3912      F3929   1.382       .  S
C3912      F3930   1.385       .  S
C3914      F3925   1.386   1_556  S
C3914      F3926   1.381       .  S
C3914      F3927   1.383       .  S
C3916      C3917   1.407       .  A
C3916      C3921   1.520       .  S
C3917      H3922   1.084       .  S
C3917      C3918   1.406   1_554  A
C3918      C3919   1.414       .  A
C3919      C3920   1.413       .  A
C3919      C3923   1.515       .  S
C3920      H3924   1.083       .  S
C3921      F3934   1.385       .  S
C3921      F3935   1.381       .  S
C3921      F3936   1.382       .  S
C3923      F3931   1.384       .  S
C3923      F3932   1.381       .  S
C3923      F3933   1.383       .  S
C3937      H3947   1.083   1_556  S
C3937      C3938   1.394       .  A
C3937      C3942   1.403       .  A
C3938      C3943   1.480   1_556  S
C3938      C3939   1.417       .  A
C3939      C3940   1.409       .  A
C3939      C3944   1.519       .  S
C3940      H3945   1.083       .  S
C3940      C3941   1.404       .  A
C3941      C3942   1.430       .  A
C3942      C3946   1.525       .  S
C3943      C3948   1.417       .  A
C3943      C3952   1.398       .  A
C3944      F3960   1.382       .  S
C3944      F3961   1.383       .  S
C3944      F3962   1.384       .  S
C3946      F3957   1.382       .  S
C3946      F3958   1.385   1_556  S
C3946      F3959   1.383       .  S
C3948      C3949   1.408       .  A
C3948      C3953   1.518       .  S
C3949      H3954   1.083       .  S
C3949      C3950   1.402       .  A
C3950      C3951   1.419       .  A
C3951      C3952   1.401       .  A
C3951      C3955   1.520       .  S
C3952      H3956   1.083   1_554  S
C3953      F3966   1.385       .  S
C3953      F3967   1.382       .  S
C3953      F3968   1.383       .  S
C3955      F3963   1.385       .  S
C3955      F3964   1.383       .  S
C3955      F3965   1.381       .  S
C3969      H3979   1.083       .  S
C3969      C3970   1.407       .  A
C3969      C3974   1.414       .  A
C3970      C3975   1.493       .  S
C3970      C3971   1.416       .  A
C3971      C3972   1.406       .  A
C3971      C3976   1.522   1_545  S
C3972      H3977   1.083   1_545  S
C3972      C3973   1.408       .  A
C3973      C3974   1.415       .  A
C3974      C3978   1.515       .  S
C3975      C3980   1.418       .  A
C3975      C3984   1.400       .  A
C3976      F3992   1.381       .  S
C3976      F3993   1.382   1_565  S
C3976      F3994   1.385       .  S
C3978      F3989   1.383       .  S
C3978      F3990   1.385       .  S
C3978      F3991   1.382       .  S
C3980      C3981   1.412       .  A
C3980      C3985   1.520       .  S
C3981      H3986   1.083       .  S
C3981      C3982   1.407       .  A
C3982      C3983   1.425       .  A
C3983      C3984   1.409       .  A
C3983      C3987   1.520       .  S
C3984      H3988   1.084       .  S
C3985      F3998   1.384       .  S
C3985      F3999   1.382       .  S
C3985      F4000   1.383       .  S
C3987      F3995   1.385       .  S
C3987      F3996   1.382       .  S
C3987      F3997   1.384       .  S
C4001      H4011   1.083       .  S
C4001      C4002   1.405       .  A
C4001      C4006   1.414       .  A
C4002      C4007   1.487       .  S
C4002      C4003   1.413       .  A
C4003      C4004   1.404       .  A
C4003      C4008   1.522       .  S
C4004      H4009   1.083       .  S
C4004      C4005   1.408       .  A
C4005      C4006   1.420       .  A
C4006      C4010   1.518       .  S
C4007      C4012   1.419       .  A
C4007      C4016   1.397       .  A
C4008      F4024   1.382       .  S
C4008      F4025   1.383       .  S
C4008      F4026   1.384       .  S
C4010      F4021   1.384       .  S
C4010      F4022   1.383       .  S
C4010      F4023   1.384       .  S
C4012      C4013   1.412       .  A
C4012      C4017   1.518       .  S
C4013      H4018   1.083       .  S
C4013      C4014   1.403       .  A
C4014      C4015   1.423       .  A
C4015      C4016   1.402       .  A
C4015      C4019   1.519       .  S
C4016      H4020   1.084       .  S
C4017      F4030   1.384       .  S
C4017      F4031   1.382       .  S
C4017      F4032   1.383       .  S
C4019      F4027   1.383       .  S
C4019      F4028   1.381       .  S
C4019      F4029   1.384       .  S
C4033      H4043   1.083       .  S
C4033      C4034   1.409       .  A
C4033      C4038   1.416       .  A
C4034      C4039   1.491       .  S
C4034      C4035   1.410       .  A
C4035      C4036   1.403       .  A
C4035      C4040   1.522       .  S
C4036      H4041   1.081       .  S
C4036      C4037   1.412       .  A
C4037      C4038   1.418       .  A
C4038      C4042   1.517       .  S
C4039      C4044   1.417       .  A
C4039      C4048   1.405       .  A
C4040      F4056   1.382       .  S
C4040      F4057   1.381       .  S
C4040      F4058   1.383       .  S
C4042      F4053   1.383       .  S
C4042      F4054   1.384       .  S
C4042      F4055   1.383       .  S
C4044      C4045   1.409       .  A
C4044      C4049   1.522       .  S
C4045      H4050   1.083       .  S
C4045      C4046   1.406       .  A
C4046      C4047   1.414       .  A
C4047      C4048   1.412       .  A
C4047      C4051   1.516       .  S
C4048      H4052   1.083       .  S
C4049      F4062   1.384       .  S
C4049      F4063   1.382       .  S
C4049      F4064   1.382       .  S
C4051      F4059   1.384       .  S
C4051      F4060   1.383       .  S
C4051      F4061   1.384       .  S
C4065      H4075   1.083       .  S
C4065      C4066   1.405       .  A
C4065      C4070   1.412       .  A
C4066      C4071   1.490       .  S
C4066      C4067   1.414       .  A
C4067      C4068   1.406       .  A
C4067      C4072   1.520       .  S
C4068      H4073   1.083       .  S
C4068      C4069   1.410       .  A
C4069      C4070   1.419       .  A
C4070      C4074   1.517       .  S
C4071      C4076   1.420       .  A
C4071      C4080   1.399       .  A
C4072      F4088   1.382   1_556  S
C4072      F4089   1.382       .  S
C4072      F4090   1.385       .  S
C4074      F4085   1.383       .  S
C4074      F4086   1.385       .  S
C4074      F4087   1.383       .  S
C4076      C4077   1.413       .  A
C4076      C4081   1.520       .  S
C4077      H4082   1.083       .  S
C4077      C4078   1.403       .  A
C4078      C4079   1.420   1_556  A
C4079      C4080   1.406   1_554  A
C4079      C4083   1.520       .  S
C4080      H4084   1.083   1_556  S
C4081      F4094   1.384       .  S
C4081      F4095   1.382       .  S
C4081      F4096   1.382       .  S
C4083      F4091   1.381       .  S
C4083      F4092   1.383       .  S
C4083      F4093   1.384       .  S
C4097      H4107   1.083       .  S
C4097      C4098   1.407       .  A
C4097      C4102   1.412       .  A
C4098      C4103   1.490       .  S
C4098      C4099   1.414       .  A
C4099      C4100   1.407       .  A
C4099      C4104   1.520       .  S
C4100      H4105   1.083       .  S
C4100      C4101   1.408       .  A
C4101      C4102   1.414       .  A
C4102      C4106   1.516       .  S
C4103      C4108   1.417   1_556  A
C4103      C4112   1.405   1_556  A
C4104      F4120   1.382   1_556  S
C4104      F4121   1.382   1_556  S
C4104      F4122   1.385       .  S
C4106      F4117   1.384       .  S
C4106      F4118   1.384       .  S
C4106      F4119   1.382       .  S
C4108      C4109   1.408       .  A
C4108      C4113   1.520   1_554  S
C4109      H4114   1.084       .  S
C4109      C4110   1.403       .  A
C4110      C4111   1.414       .  A
C4111      C4112   1.410       .  A
C4111      C4115   1.517       .  S
C4112      H4116   1.083       .  S
C4113      F4126   1.384       .  S
C4113      F4127   1.382       .  S
C4113      F4128   1.382       .  S
C4115      F4123   1.383       .  S
C4115      F4124   1.383       .  S
C4115      F4125   1.384       .  S
C4129      H4139   1.083       .  S
C4129      C4130   1.404       .  A
C4129      C4134   1.413       .  A
C4130      C4135   1.485       .  S
C4130      C4131   1.411       .  A
C4131      C4132   1.401       .  A
C4131      C4136   1.522       .  S
C4132      H4137   1.083       .  S
C4132      C4133   1.412       .  A
C4133      C4134   1.422       .  A
C4134      C4138   1.518       .  S
C4135      C4140   1.418       .  A
C4135      C4144   1.400       .  A
C4136      F4152   1.382       .  S
C4136      F4153   1.383       .  S
C4136      F4154   1.385       .  S
C4138      F4149   1.385       .  S
C4138      F4150   1.383       .  S
C4138      F4151   1.383       .  S
C4140      C4141   1.411       .  A
C4140      C4145   1.519       .  S
C4141      H4146   1.083       .  S
C4141      C4142   1.403       .  A
C4142      C4143   1.416       .  A
C4143      C4144   1.404       .  A
C4143      C4147   1.517       .  S
C4144      H4148   1.083       .  S
C4145      F4158   1.384       .  S
C4145      F4159   1.382       .  S
C4145      F4160   1.383       .  S
C4147      F4155   1.382       .  S
C4147      F4156   1.383       .  S
C4147      F4157   1.385       .  S
C4161      H4171   1.083       .  S
C4161      C4162   1.394       .  A
C4161      C4166   1.407       .  A
C4162      C4167   1.487       .  S
C4162      C4163   1.414       .  A
C4163      C4164   1.410       .  A
C4163      C4168   1.518       .  S
C4164      H4169   1.082       .  S
C4164      C4165   1.410       .  A
C4165      C4166   1.434       .  A
C4166      C4170   1.522       .  S
C4167      C4172   1.415       .  A
C4167      C4176   1.407       .  A
C4168      F4184   1.382       .  S
C4168      F4185   1.382       .  S
C4168      F4186   1.385       .  S
C4170      F4181   1.385       .  S
C4170      F4182   1.384       .  S
C4170      F4183   1.384       .  S
C4172      C4173   1.403       .  A
C4172      C4177   1.521       .  S
C4173      H4178   1.084       .  S
C4173      C4174   1.404       .  A
C4174      C4175   1.415       .  A
C4175      C4176   1.414       .  A
C4175      C4179   1.515       .  S
C4176      H4180   1.083       .  S
C4177      F4190   1.384       .  S
C4177      F4191   1.382       .  S
C4177      F4192   1.382       .  S
C4179      F4187   1.385       .  S
C4179      F4188   1.383       .  S
C4179      F4189   1.383       .  S
C4193      H4203   1.083       .  S
C4193      C4194   1.405       .  A
C4193      C4198   1.412       .  A
C4194      C4199   1.487       .  S
C4194      C4195   1.413       .  A
C4195      C4196   1.404       .  A
C4195      C4200   1.522       .  S
C4196      H4201   1.079       .  S
C4196      C4197   1.407       .  A
C4197      C4198   1.418       .  A
C4198      C4202   1.517       .  S
C4199      C4204   1.419       .  A
C4199      C4208   1.398       .  A
C4200      F4216   1.382       .  S
C4200      F4217   1.383       .  S
C4200      F4218   1.383       .  S
C4202      F4213   1.384       .  S
C4202      F4214   1.383       .  S
C4202      F4215   1.384       .  S
C4204      C4205   1.412       .  A
C4204      C4209   1.518       .  S
C4205      H4210   1.083       .  S
C4205      C4206   1.402       .  A
C4206      C4207   1.419       .  A
C4207      C4208   1.402       .  A
C4207      C4211   1.518       .  S
C4208      H4212   1.084       .  S
C4209      F4222   1.384       .  S
C4209      F4223   1.382       .  S
C4209      F4224   1.383       .  S
C4211      F4219   1.382       .  S
C4211      F4220   1.384       .  S
C4211      F4221   1.385       .  S
C4225      H4235   1.083       .  S
C4225      C4226   1.401       .  A
C4225      C4230   1.413       .  A
C4226      C4231   1.505       .  S
C4226      C4227   1.419       .  A
C4227      C4228   1.419       .  A
C4227      C4232   1.519       .  S
C4228      H4233   1.083       .  S
C4228      C4229   1.410       .  A
C4229      C4230   1.427       .  A
C4230      C4234   1.520       .  S
C4231      C4236   1.414       .  A
C4231      C4240   1.403       .  A
C4232      F4248   1.383       .  S
C4232      F4249   1.383       .  S
C4232      F4250   1.384       .  S
C4234      F4245   1.383       .  S
C4234      F4246   1.385       .  S
C4234      F4247   1.382       .  S
C4236      C4237   1.412       .  A
C4236      C4241   1.521       .  S
C4237      H4242   1.081       .  S
C4237      C4238   1.417       .  A
C4238      C4239   1.434       .  A
C4239      C4240   1.420       .  A
C4239      C4243   1.520       .  S
C4240      H4244   1.083       .  S
C4241      F4254   1.384       .  S
C4241      F4255   1.382       .  S
C4241      F4256   1.382       .  S
C4243      F4251   1.383       .  S
C4243      F4252   1.383       .  S
C4243      F4253   1.385       .  S
C4257      H4267   1.083       .  S
C4257      C4258   1.407       .  A
C4257      C4262   1.420       .  A
C4258      C4263   1.519   1_554  S
C4258      C4259   1.423   1_554  A
C4259      C4260   1.423       .  A
C4259      C4264   1.519       .  S
C4260      H4265   1.083       .  S
C4260      C4261   1.408   1_556  A
C4261      C4262   1.425       .  A
C4262      C4266   1.518       .  S
C4263      C4268   1.423       .  A
C4263      C4272   1.409   1_556  A
C4264      F4280   1.381   1_556  S
C4264      F4281   1.381       .  S
C4264      F4282   1.385       .  S
C4266      F4277   1.382   1_554  S
C4266      F4278   1.385       .  S
C4266      F4279   1.383       .  S
C4268      C4269   1.421       .  A
C4268      C4273   1.519       .  S
C4269      H4274   1.083       .  S
C4269      C4270   1.407       .  A
C4270      C4271   1.420   1_556  A
C4271      C4272   1.422       .  A
C4271      C4275   1.515       .  S
C4272      H4276   1.083       .  S
C4273      F4286   1.384       .  S
C4273      F4287   1.382       .  S
C4273      F4288   1.381       .  S
C4275      F4283   1.381       .  S
C4275      F4284   1.382       .  S
C4275      F4285   1.384       .  S
C4289      H4299   1.085       .  S
C4289      C4290   1.401       .  A
C4289      C4294   1.405       .  A
C4290      C4295   1.491       .  S
C4290      C4291   1.418       .  A
C4291      C4292   1.414       .  A
C4291      C4296   1.520       .  S
C4292      H4297   1.083       .  S
C4292      C4293   1.406       .  A
C4293      C4294   1.419       .  A
C4294      C4298   1.517   1_556  S
C4295      C4300   1.419       .  A
C4295      C4304   1.397       .  A
C4296      F4312   1.382       .  S
C4296      F4313   1.382       .  S
C4296      F4314   1.384       .  S
C4298      F4309   1.383       .  S
C4298      F4310   1.384       .  S
C4298      F4311   1.382       .  S
C4300      C4301   1.412       .  A
C4300      C4305   1.518       .  S
C4301      H4306   1.083       .  S
C4301      C4302   1.404       .  A
C4302      C4303   1.427       .  A
C4303      C4304   1.406       .  A
C4303      C4307   1.521       .  S
C4304      H4308   1.083       .  S
C4305      F4318   1.385       .  S
C4305      F4319   1.381       .  S
C4305      F4320   1.381       .  S
C4307      F4315   1.381       .  S
C4307      F4316   1.382       .  S
C4307      F4317   1.385       .  S
C4321      H4331   1.083       .  S
C4321      C4322   1.409       .  A
C4321      C4326   1.416       .  A
C4322      C4327   1.486       .  S
C4322      C4323   1.410       .  A
C4323      C4324   1.399       .  A
C4323      C4328   1.523       .  S
C4324      H4329   1.083       .  S
C4324      C4325   1.410       .  A
C4325      C4326   1.419       .  A
C4326      C4330   1.517       .  S
C4327      C4332   1.414       .  A
C4327      C4336   1.404   1_554  A
C4328      F4344   1.381   1_554  S
C4328      F4345   1.381   1_554  S
C4328      F4346   1.384       .  S
C4330      F4341   1.385       .  S
C4330      F4342   1.383       .  S
C4330      F4343   1.383       .  S
C4332      C4333   1.409   1_554  A
C4332      C4337   1.521       .  S
C4333      H4338   1.084   1_655  S
C4333      C4334   1.407       .  A
C4334      C4335   1.415       .  A
C4335      C4336   1.408       .  A
C4335      C4339   1.516       .  S
C4336      H4340   1.083   1_556  S
C4337      F4350   1.384   1_655  S
C4337      F4351   1.382       .  S
C4337      F4352   1.382       .  S
C4339      F4347   1.383       .  S
C4339      F4348   1.383       .  S
C4339      F4349   1.385       .  S
C4353      H4363   1.083       .  S
C4353      C4354   1.407       .  A
C4353      C4358   1.414       .  A
C4354      C4359   1.490       .  S
C4354      C4355   1.413       .  A
C4355      C4356   1.407       .  A
C4355      C4360   1.522       .  S
C4356      H4361   1.083       .  S
C4356      C4357   1.410       .  A
C4357      C4358   1.417       .  A
C4358      C4362   1.517       .  S
C4359      C4364   1.417       .  A
C4359      C4368   1.405       .  A
C4360      F4376   1.382       .  S
C4360      F4377   1.381       .  S
C4360      F4378   1.384       .  S
C4362      F4373   1.382       .  S
C4362      F4374   1.385       .  S
C4362      F4375   1.384       .  S
C4364      C4365   1.409       .  A
C4364      C4369   1.520       .  S
C4365      H4370   1.084       .  S
C4365      C4366   1.405       .  A
C4366      C4367   1.414       .  A
C4367      C4368   1.410       .  A
C4367      C4371   1.516   1_655  S
C4368      H4372   1.083       .  S
C4369      F4382   1.385       .  S
C4369      F4383   1.382       .  S
C4369      F4384   1.381       .  S
C4371      F4379   1.383       .  S
C4371      F4380   1.383   1_455  S
C4371      F4381   1.384       .  S
C4385      H4395   1.083       .  S
C4385      C4386   1.411       .  A
C4385      C4390   1.417       .  A
C4386      C4391   1.497       .  S
C4386      C4387   1.414       .  A
C4387      C4388   1.405       .  A
C4387      C4392   1.520       .  S
C4388      H4393   1.083       .  S
C4388      C4389   1.407       .  A
C4389      C4390   1.415       .  A
C4390      C4394   1.516       .  S
C4391      C4396   1.415       .  A
C4391      C4400   1.410   1_655  A
C4392      F4408   1.382   1_655  S
C4392      F4409   1.382   1_655  S
C4392      F4410   1.385       .  S
C4394      F4405   1.383       .  S
C4394      F4406   1.385       .  S
C4394      F4407   1.383       .  S
C4396      C4397   1.406   1_655  A
C4396      C4401   1.521       .  S
C4397      H4402   1.083       .  S
C4397      C4398   1.408       .  A
C4398      C4399   1.416       .  A
C4399      C4400   1.418       .  A
C4399      C4403   1.515       .  S
C4400      H4404   1.083       .  S
C4401      F4414   1.384       .  S
C4401      F4415   1.382       .  S
C4401      F4416   1.382       .  S
C4403      F4411   1.383       .  S
C4403      F4412   1.383       .  S
C4403      F4413   1.384       .  S
C4417      H4427   1.083       .  S
C4417      C4418   1.406       .  A
C4417      C4422   1.418       .  A
C4418      C4423   1.500       .  S
C4418      C4419   1.413       .  A
C4419      C4420   1.410       .  A
C4419      C4424   1.521       .  S
C4420      H4425   1.082       .  S
C4420      C4421   1.416       .  A
C4421      C4422   1.427       .  A
C4422      C4426   1.519       .  S
C4423      C4428   1.422       .  A
C4423      C4432   1.403       .  A
C4424      F4440   1.382       .  S
C4424      F4441   1.382       .  S
C4424      F4442   1.384       .  S
C4426      F4437   1.383       .  S
C4426      F4438   1.385       .  S
C4426      F4439   1.384       .  S
C4428      C4429   1.415       .  A
C4428      C4433   1.518       .  S
C4429      H4434   1.083       .  S
C4429      C4430   1.403       .  A
C4430      C4431   1.414       .  A
C4431      C4432   1.408       .  A
C4431      C4435   1.515   1_554  S
C4432      H4436   1.083   1_554  S
C4433      F4446   1.385       .  S
C4433      F4447   1.381       .  S
C4433      F4448   1.382       .  S
C4435      F4443   1.382       .  S
C4435      F4444   1.384       .  S
C4435      F4445   1.385       .  S
C4449      H4459   1.083       .  S
C4449      C4450   1.408       .  A
C4449      C4454   1.418       .  A
C4450      C4455   1.500       .  S
C4450      C4451   1.414       .  A
C4451      C4452   1.408       .  A
C4451      C4456   1.521       .  S
C4452      H4457   1.082       .  S
C4452      C4453   1.413       .  A
C4453      C4454   1.421       .  A
C4454      C4458   1.516       .  S
C4455      C4460   1.418       .  A
C4455      C4464   1.406       .  A
C4456      F4472   1.382       .  S
C4456      F4473   1.382       .  S
C4456      F4474   1.385       .  S
C4458      F4469   1.385       .  S
C4458      F4470   1.383       .  S
C4458      F4471   1.383       .  S
C4460      C4461   1.412       .  A
C4460      C4465   1.520       .  S
C4461      H4466   1.083   1_554  S
C4461      C4462   1.408       .  A
C4462      C4463   1.417       .  A
C4463      C4464   1.414       .  A
C4463      C4467   1.516       .  S
C4464      H4468   1.083       .  S
C4465      F4478   1.385   1_554  S
C4465      F4479   1.382       .  S
C4465      F4480   1.382       .  S
C4467      F4475   1.383       .  S
C4467      F4476   1.382       .  S
C4467      F4477   1.385       .  S
C4481      H4491   1.084       .  S
C4481      C4482   1.401       .  A
C4481      C4486   1.404       .  A
C4482      C4487   1.491       .  S
C4482      C4483   1.420       .  A
C4483      C4484   1.412       .  A
C4483      C4488   1.518       .  S
C4484      H4489   1.083       .  S
C4484      C4485   1.403       .  A
C4485      C4486   1.417       .  A
C4486      C4490   1.517       .  S
C4487      C4492   1.412       .  A
C4487      C4496   1.404       .  A
C4488      F4504   1.382       .  S
C4488      F4505   1.382       .  S
C4488      F4506   1.385       .  S
C4490      F4501   1.385       .  S
C4490      F4502   1.382       .  S
C4490      F4503   1.384       .  S
C4492      C4493   1.406       .  A
C4492      C4497   1.521       .  S
C4493      H4498   1.082       .  S
C4493      C4494   1.413       .  A
C4494      C4495   1.426       .  A
C4495      C4496   1.414       .  A
C4495      C4499   1.520       .  S
C4496      H4500   1.083       .  S
C4497      F4510   1.385       .  S
C4497      F4511   1.382       .  S
C4497      F4512   1.382       .  S
C4499      F4507   1.383       .  S
C4499      F4508   1.384       .  S
C4499      F4509   1.385       .  S
C4513      H4523   1.083       .  S
C4513      C4514   1.396       .  A
C4513      C4518   1.412       .  A
C4514      C4519   1.504       .  S
C4514      C4515   1.419       .  A
C4515      C4516   1.419       .  A
C4515      C4520   1.519       .  S
C4516      H4521   1.082       .  S
C4516      C4517   1.412       .  A
C4517      C4518   1.437       .  A
C4518      C4522   1.523       .  S
C4519      C4524   1.418       .  A
C4519      C4528   1.408       .  A
C4520      F4536   1.382       .  S
C4520      F4537   1.383       .  S
C4520      F4538   1.384       .  S
C4522      F4533   1.384       .  S
C4522      F4534   1.385       .  S
C4522      F4535   1.382       .  S
C4524      C4525   1.410       .  A
C4524      C4529   1.520   1_655  S
C4525      H4530   1.083   1_655  S
C4525      C4526   1.407       .  A
C4526      C4527   1.416       .  A
C4527      C4528   1.417       .  A
C4527      C4531   1.515       .  S
C4528      H4532   1.083       .  S
C4529      F4542   1.385       .  S
C4529      F4543   1.382       .  S
C4529      F4544   1.382       .  S
C4531      F4539   1.384       .  S
C4531      F4540   1.383       .  S
C4531      F4541   1.383       .  S
C4545      H4555   1.083       .  S
C4545      C4546   1.407       .  A
C4545      C4550   1.418       .  A
C4546      C4551   1.497       .  S
C4546      C4547   1.413       .  A
C4547      C4548   1.408       .  A
C4547      C4552   1.523       .  S
C4548      H4553   1.082       .  S
C4548      C4549   1.415       .  A
C4549      C4550   1.422       .  A
C4550      C4554   1.517       .  S
C4551      C4556   1.421       .  A
C4551      C4560   1.403       .  A
C4552      F4568   1.381       .  S
C4552      F4569   1.382       .  S
C4552      F4570   1.384       .  S
C4554      F4565   1.384       .  S
C4554      F4566   1.383       .  S
C4554      F4567   1.383       .  S
C4556      C4557   1.412       .  A
C4556      C4561   1.519       .  S
C4557      H4562   1.083       .  S
C4557      C4558   1.402       .  A
C4558      C4559   1.417       .  A
C4559      C4560   1.409       .  A
C4559      C4563   1.519       .  S
C4560      H4564   1.083       .  S
C4561      F4574   1.385       .  S
C4561      F4575   1.381       .  S
C4561      F4576   1.381       .  S
C4563      F4571   1.382       .  S
C4563      F4572   1.383       .  S
C4563      F4573   1.385       .  S
C4577      H4587   1.083       .  S
C4577      C4578   1.396       .  A
C4577      C4582   1.406       .  A
C4578      C4583   1.494       .  S
C4578      C4579   1.420       .  A
C4579      C4580   1.417       .  A
C4579      C4584   1.518       .  S
C4580      H4585   1.083       .  S
C4580      C4581   1.405       .  A
C4581      C4582   1.427       .  A
C4582      C4586   1.522       .  S
C4583      C4588   1.420   1_655  A
C4583      C4592   1.402       .  A
C4584      F4600   1.383       .  S
C4584      F4601   1.382       .  S
C4584      F4602   1.384       .  S
C4586      F4597   1.382       .  S
C4586      F4598   1.385       .  S
C4586      F4599   1.382       .  S
C4588      C4589   1.413       .  A
C4588      C4593   1.518       .  S
C4589      H4594   1.083       .  S
C4589      C4590   1.402       .  A
C4590      C4591   1.417       .  A
C4591      C4592   1.407   1_455  A
C4591      C4595   1.517       .  S
C4592      H4596   1.084       .  S
C4593      F4606   1.384       .  S
C4593      F4607   1.382       .  S
C4593      F4608   1.382   1_455  S
C4595      F4603   1.384   1_455  S
C4595      F4604   1.384       .  S
C4595      F4605   1.382   1_455  S
C4609      H4619   1.083       .  S
C4609      C4610   1.409       .  A
C4609      C4614   1.420       .  A
C4610      C4615   1.495       .  S
C4610      C4611   1.411       .  A
C4611      C4612   1.403       .  A
C4611      C4616   1.522       .  S
C4612      H4617   1.082       .  S
C4612      C4613   1.413       .  A
C4613      C4614   1.423       .  A
C4614      C4618   1.517       .  S
C4615      C4620   1.416       .  A
C4615      C4624   1.406       .  A
C4616      F4632   1.382       .  S
C4616      F4633   1.383       .  S
C4616      F4634   1.384       .  S
C4618      F4629   1.383       .  S
C4618      F4630   1.385       .  S
C4618      F4631   1.383       .  S
C4620      C4621   1.411       .  A
C4620      C4625   1.519       .  S
C4621      H4626   1.083       .  S
C4621      C4622   1.406       .  A
C4622      C4623   1.415       .  A
C4623      C4624   1.412       .  A
C4623      C4627   1.515       .  S
C4624      H4628   1.083       .  S
C4625      F4638   1.384       .  S
C4625      F4639   1.383       .  S
C4625      F4640   1.383       .  S
C4627      F4635   1.385       .  S
C4627      F4636   1.383       .  S
C4627      F4637   1.383       .  S
C4641      H4651   1.083       .  S
C4641      C4642   1.404       .  A
C4641      C4646   1.415       .  A
C4642      C4647   1.493       .  S
C4642      C4643   1.412       .  A
C4643      C4644   1.405       .  A
C4643      C4648   1.521       .  S
C4644      H4649   1.082       .  S
C4644      C4645   1.413       .  A
C4645      C4646   1.428       .  A
C4646      C4650   1.521       .  S
C4647      C4652   1.420       .  A
C4647      C4656   1.402       .  A
C4648      F4664   1.382       .  S
C4648      F4665   1.382       .  S
C4648      F4666   1.385       .  S
C4650      F4661   1.383       .  S
C4650      F4662   1.385       .  S
C4650      F4663   1.383       .  S
C4652      C4653   1.411       .  A
C4652      C4657   1.518       .  S
C4653      H4658   1.083       .  S
C4653      C4654   1.401       .  A
C4654      C4655   1.416       .  A
C4655      C4656   1.408       .  A
C4655      C4659   1.517       .  S
C4656      H4660   1.083       .  S
C4657      F4670   1.385       .  S
C4657      F4671   1.382       .  S
C4657      F4672   1.382       .  S
C4659      F4667   1.382       .  S
C4659      F4668   1.382       .  S
C4659      F4669   1.385       .  S
C4673      H4683   1.083       .  S
C4673      C4674   1.397       .  A
C4673      C4678   1.408       .  A
C4674      C4679   1.491       .  S
C4674      C4675   1.417       .  A
C4675      C4676   1.411       .  A
C4675      C4680   1.520       .  S
C4676      H4681   1.082       .  S
C4676      C4677   1.408       .  A
C4677      C4678   1.431       .  A
C4678      C4682   1.521       .  S
C4679      C4684   1.417       .  A
C4679      C4688   1.406       .  A
C4680      F4696   1.382       .  S
C4680      F4697   1.383       .  S
C4680      F4698   1.384       .  S
C4682      F4693   1.386       .  S
C4682      F4694   1.381       .  S
C4682      F4695   1.383       .  S
C4684      C4685   1.406       .  A
C4684      C4689   1.520       .  S
C4685      H4690   1.083       .  S
C4685      C4686   1.404       .  A
C4686      C4687   1.413       .  A
C4687      C4688   1.410       .  A
C4687      C4691   1.516       .  S
C4688      H4692   1.083       .  S
C4689      F4702   1.385       .  S
C4689      F4703   1.382       .  S
C4689      F4704   1.383       .  S
C4691      F4699   1.382       .  S
C4691      F4700   1.384       .  S
C4691      F4701   1.385       .  S
C4705      H4715   1.083       .  S
C4705      C4706   1.405       .  A
C4705      C4710   1.414       .  A
C4706      C4711   1.487       .  S
C4706      C4707   1.411       .  A
C4707      C4708   1.405       .  A
C4707      C4712   1.523       .  S
C4708      H4713   1.082       .  S
C4708      C4709   1.415       .  A
C4709      C4710   1.421       .  A
C4710      C4714   1.516       .  S
C4711      C4716   1.417       .  A
C4711      C4720   1.402       .  A
C4712      F4728   1.382       .  S
C4712      F4729   1.382       .  S
C4712      F4730   1.385       .  S
C4714      F4725   1.383       .  S
C4714      F4726   1.384       .  S
C4714      F4727   1.383       .  S
C4716      C4717   1.411       .  A
C4716      C4721   1.519       .  S
C4717      H4722   1.084       .  S
C4717      C4718   1.404       .  A
C4718      C4719   1.414       .  A
C4719      C4720   1.405       .  A
C4719      C4723   1.518       .  S
C4720      H4724   1.084       .  S
C4721      F4734   1.384       .  S
C4721      F4735   1.382       .  S
C4721      F4736   1.382       .  S
C4723      F4731   1.383       .  S
C4723      F4732   1.383       .  S
C4723      F4733   1.384       .  S
C4737      H4747   1.083       .  S
C4737      C4738   1.406       .  A
C4737      C4742   1.415       .  A
C4738      C4743   1.495       .  S
C4738      C4739   1.415       .  A
C4739      C4740   1.406       .  A
C4739      C4744   1.521       .  S
C4740      H4745   1.083       .  S
C4740      C4741   1.411       .  A
C4741      C4742   1.421       .  A
C4742      C4746   1.518       .  S
C4743      C4748   1.421       .  A
C4743      C4752   1.400       .  A
C4744      F4760   1.381       .  S
C4744      F4761   1.382       .  S
C4744      F4762   1.385       .  S
C4746      F4757   1.384       .  S
C4746      F4758   1.383       .  S
C4746      F4759   1.384       .  S
C4748      C4749   1.415       .  A
C4748      C4753   1.519       .  S
C4749      H4754   1.083       .  S
C4749      C4750   1.404       .  A
C4750      C4751   1.419       .  A
C4751      C4752   1.405       .  A
C4751      C4755   1.515       .  S
C4752      H4756   1.085       .  S
C4753      F4766   1.385       .  S
C4753      F4767   1.382       .  S
C4753      F4768   1.382       .  S
C4755      F4763   1.382       .  S
C4755      F4764   1.383       .  S
C4755      F4765   1.385       .  S
C4769      H4779   1.082       .  S
C4769      C4770   1.407       .  A
C4769      C4774   1.419       .  A
C4770      C4775   1.502       .  S
C4770      C4771   1.414       .  A
C4771      C4772   1.411       .  A
C4771      C4776   1.521       .  S
C4772      H4777   1.082       .  S
C4772      C4773   1.413       .  A
C4773      C4774   1.423       .  A
C4774      C4778   1.516       .  S
C4775      C4780   1.420       .  A
C4775      C4784   1.407       .  A
C4776      F4792   1.382       .  S
C4776      F4793   1.382       .  S
C4776      F4794   1.384       .  S
C4778      F4789   1.385       .  S
C4778      F4790   1.383       .  S
C4778      F4791   1.383       .  S
C4780      C4781   1.412       .  A
C4780      C4785   1.517       .  S
C4781      H4786   1.083       .  S
C4781      C4782   1.402       .  A
C4782      C4783   1.415       .  A
C4783      C4784   1.412       .  A
C4783      C4787   1.519       .  S
C4784      H4788   1.083       .  S
C4785      F4798   1.385       .  S
C4785      F4799   1.382       .  S
C4785      F4800   1.382       .  S
C4787      F4795   1.383       .  S
C4787      F4796   1.384       .  S
C4787      F4797   1.384       .  S
C4801      H4811   1.083       .  S
C4801      C4802   1.399       .  A
C4801      C4806   1.406       .  A
C4802      C4807   1.494       .  S
C4802      C4803   1.421       .  A
C4803      C4804   1.414       .  A
C4803      C4808   1.520       .  S
C4804      H4809   1.083       .  S
C4804      C4805   1.405       .  A
C4805      C4806   1.425       .  A
C4806      C4810   1.521       .  S
C4807      C4812   1.417       .  A
C4807      C4816   1.406       .  A
C4808      F4824   1.382       .  S
C4808      F4825   1.383       .  S
C4808      F4826   1.384       .  S
C4810      F4821   1.383       .  S
C4810      F4822   1.384       .  S
C4810      F4823   1.383       .  S
C4812      C4813   1.406       .  A
C4812      C4817   1.520       .  S
C4813      H4818   1.084       .  S
C4813      C4814   1.404       .  A
C4814      C4815   1.415       .  A
C4815      C4816   1.412       .  A
C4815      C4819   1.517       .  S
C4816      H4820   1.083       .  S
C4817      F4830   1.385       .  S
C4817      F4831   1.381       .  S
C4817      F4832   1.382       .  S
C4819      F4827   1.385       .  S
C4819      F4828   1.382       .  S
C4819      F4829   1.383       .  S
C4833      H4843   1.083       .  S
C4833      C4834   1.407       .  A
C4833      C4838   1.416       .  A
C4834      C4839   1.491       .  S
C4834      C4835   1.414       .  A
C4835      C4836   1.404       .  A
C4835      C4840   1.520       .  S
C4836      H4841   1.083       .  S
C4836      C4837   1.406       .  A
C4837      C4838   1.420       .  A
C4838      C4842   1.518       .  S
C4839      C4844   1.418       .  A
C4839      C4848   1.401       .  A
C4840      F4856   1.382       .  S
C4840      F4857   1.383       .  S
C4840      F4858   1.384       .  S
C4842      F4853   1.384       .  S
C4842      F4854   1.384       .  S
C4842      F4855   1.382       .  S
C4844      C4845   1.411       .  A
C4844      C4849   1.518       .  S
C4845      H4850   1.084       .  S
C4845      C4846   1.404       .  A
C4846      C4847   1.416       .  A
C4847      C4848   1.406       .  A
C4847      C4851   1.515       .  S
C4848      H4852   1.083       .  S
C4849      F4862   1.385       .  S
C4849      F4863   1.382       .  S
C4849      F4864   1.382       .  S
C4851      F4859   1.383       .  S
C4851      F4860   1.380       .  S
C4851      F4861   1.385       .  S
C4865      H4875   1.084       .  S
C4865      C4866   1.401       .  A
C4865      C4870   1.407       .  A
C4866      C4871   1.492       .  S
C4866      C4867   1.419       .  A
C4867      C4868   1.409       .  A
C4867      C4872   1.517       .  S
C4868      H4873   1.082       .  S
C4868      C4869   1.402       .  A
C4869      C4870   1.422       .  A
C4870      C4874   1.518       .  S
C4871      C4876   1.415       .  A
C4871      C4880   1.406       .  A
C4872      F4888   1.381       .  S
C4872      F4889   1.382       .  S
C4872      F4890   1.385       .  S
C4874      F4885   1.384       .  S
C4874      F4886   1.386       .  S
C4874      F4887   1.382       .  S
C4876      C4877   1.409       .  A
C4876      C4881   1.519       .  S
C4877      H4882   1.084       .  S
C4877      C4878   1.407       .  A
C4878      C4879   1.416       .  A
C4879      C4880   1.412       .  A
C4879      C4883   1.517       .  S
C4880      H4884   1.083       .  S
C4881      F4894   1.384       .  S
C4881      F4895   1.382       .  S
C4881      F4896   1.383       .  S
C4883      F4891   1.385       .  S
C4883      F4892   1.382       .  S
C4883      F4893   1.384       .  S
