geometry optimzed in LAMMPS
_audit_creation_date              2020-11-30 
_audit_creation_method            'lammps2cif' 
_symmetry_space_group_name_H-M    'P1' 
_symmetry_Int_Tables_number       1 
_symmetry_cell_setting            triclinic 
loop_ 
_symmetry_equiv_pos_as_xyz 
  x,y,z 
_cell_length_a                    50.75427652 
_cell_length_b                    54.51934007372439 
_cell_length_c                    28.841591182843615 
_cell_angle_alpha                 91.27200439035212 
_cell_angle_beta                  89.21302399100827 
_cell_angle_gamma                 91.39874487342502 
loop_ 
_atom_site_label 
_atom_site_type_symbol 
_atom_site_fract_x 
_atom_site_fract_y 
_atom_site_fract_z 
_atom_site_charge 
N1          N  0.17985504  0.51050053  0.99736791    -0.26600
N2          N  0.20354702  0.50382445  0.00991364    -0.34500
C3          C  0.21111027  0.48476713  0.98287566     0.01700
C4          C  0.19114495  0.47915818  0.95209744     0.07700
C5          C  0.17153515  0.49561936  0.96241501    -0.05400
H6          H  0.22922943  0.47500889  0.98679893     0.08400
H7          H  0.15241786  0.49637915  0.94645292     0.09600
Cu8        Cu  0.22313165  0.51934637  0.06627356     0.44200
Cu9        Cu  0.15973060  0.53906581  0.02959872     0.42000
Cu10       Cu  0.19161954  0.57044347  0.12718380     0.43900
N11         N  0.23859900  0.53698798  0.12453149    -0.34000
N12         N  0.22803379  0.55620610  0.14585934    -0.28300
C13         C  0.24384355  0.56352082  0.18109869    -0.04400
C14         C  0.26498925  0.54792570  0.18209800     0.07800
C15         C  0.26087844  0.53125563  0.14609445     0.01600
H16         H  0.23987304  0.57861036  0.20496737     0.09300
H17         H  0.27330335  0.51614055  0.13602282     0.08400
N18         N  0.15472135  0.57998419  0.10153065    -0.35500
N19         N  0.14350758  0.56865295  0.06559114    -0.27700
C20         C  0.12098021  0.57988788  0.05574486    -0.02900
C21         C  0.11751402  0.59921494  0.08705041     0.05700
C22         C  0.13930260  0.59860248  0.11573630     0.03800
H23         H  0.10847339  0.57486615  0.02681363     0.08900
H24         H  0.14398634  0.61126126  0.14398273     0.07700
N25         N  0.18156841  0.42031211  0.89299278    -0.26600
N26         N  0.19724126  0.43153548  0.86282840    -0.34500
C27         C  0.20276268  0.45446684  0.87871172     0.01700
C28         C  0.18948574  0.45782602  0.92042962     0.07700
C29         C  0.17629240  0.43586730  0.92855293    -0.05400
H30         H  0.21576603  0.46752029  0.86157647     0.08400
H31         H  0.16452444  0.43124376  0.95881179     0.09600
Cu32       Cu  0.21096507  0.41414590  0.80302382     0.44200
Cu33       Cu  0.16999660  0.38380358  0.88550274     0.42000
Cu34       Cu  0.19732552  0.34767580  0.78985250     0.43900
N35         N  0.22616647  0.39225121  0.75006634    -0.34000
N36         N  0.22291168  0.36809974  0.74671759    -0.28300
C37         C  0.23860776  0.35967822  0.71205987    -0.04400
C38         C  0.25179817  0.37952440  0.69232368     0.07800
C39         C  0.24332723  0.39982042  0.71713248     0.01600
H40         H  0.24056225  0.34052998  0.70235766     0.09300
H41         H  0.25036350  0.41857861  0.71345956     0.08400
N42         N  0.16905590  0.33392554  0.83712605    -0.35500
N43         N  0.15964070  0.34742235  0.87198801    -0.27700
C44         C  0.14093156  0.33446202  0.89475603    -0.02900
C45         C  0.13818311  0.31166371  0.87341962     0.05700
C46         C  0.15629508  0.31185934  0.83688789     0.03800
H47         H  0.12931055  0.34152648  0.92359601     0.08900
H48         H  0.15919407  0.29745864  0.81107278     0.07700
N49         N  0.36943926  0.41286374  0.48258336    -0.26600
N50         N  0.34701613  0.42250198  0.49727146    -0.34500
C51         C  0.34323498  0.44334119  0.47445156     0.01700
C52         C  0.36445070  0.44740044  0.44485440     0.07700
C53         C  0.38072063  0.42773865  0.45077404    -0.05400
H54         H  0.32623137  0.45478239  0.47913162     0.08400
H55         H  0.39891704  0.42405592  0.43219888     0.09600
Cu56       Cu  0.32215686  0.40808491  0.54871748     0.44200
Cu57       Cu  0.38335870  0.37940377  0.50494142     0.42000
Cu58       Cu  0.34376429  0.35295145  0.59731053     0.43900
N59         N  0.30145135  0.39031639  0.60181781    -0.34000
N60         N  0.30922524  0.36931929  0.61835084    -0.28300
C61         C  0.29220179  0.36183464  0.65156721    -0.04400
C62         C  0.27291540  0.37913739  0.65680278     0.07800
C63         C  0.27944115  0.39707564  0.62496213     0.01600
H64         H  0.29438459  0.34556159  0.67181168     0.09300
H65         H  0.26908783  0.41383760  0.61932391     0.08400
N66         N  0.37858823  0.33835085  0.57289094    -0.35500
N67         N  0.39297927  0.34727613  0.53834337    -0.27700
C68         C  0.41460669  0.33355003  0.53265516    -0.02900
C69         C  0.41375061  0.31531044  0.56556930     0.05700
C70         C  0.39065951  0.31905340  0.59034313     0.03800
H71         H  0.43024333  0.33716379  0.50769491     0.08900
H72         H  0.38363074  0.30902217  0.62018661     0.07700
N73         N  0.37983913  0.50096433  0.37443584    -0.26600
N74         N  0.35599458  0.49454233  0.35990675    -0.34500
C75         C  0.34754164  0.47428667  0.38176662     0.01700
C76         C  0.36706977  0.46714285  0.41094752     0.07700
C77         C  0.38740006  0.48440200  0.40551977    -0.05400
H78         H  0.32828805  0.46563880  0.37736746     0.08400
H79         H  0.40560796  0.48559989  0.42460443     0.09600
Cu80       Cu  0.33492160  0.51365793  0.31240093     0.44200
Cu81       Cu  0.39864663  0.53382910  0.35410885     0.42000
Cu82       Cu  0.36098278  0.57077629  0.27218530     0.43900
N83         N  0.31551785  0.53445924  0.26520148    -0.34000
N84         N  0.32453599  0.55597345  0.25085223    -0.28300
C85         C  0.30728446  0.56475808  0.22049052    -0.04400
C86         C  0.28665260  0.54779548  0.21551456     0.07800
C87         C  0.29268431  0.52874740  0.24397694     0.01600
H88         H  0.31009279  0.58166589  0.20196231     0.09300
H89         H  0.28150118  0.51180966  0.24844414     0.08400
N90         N  0.39738937  0.58153109  0.30052091    -0.35500
N91         N  0.41071671  0.56852788  0.33018860    -0.27700
C92         C  0.43271245  0.58137653  0.34230333    -0.02900
C93         C  0.43339785  0.60340030  0.31911264     0.05700
C94         C  0.41070732  0.60280796  0.29292394     0.03800
H95         H  0.44719697  0.57515923  0.36629920     0.08900
H96         H  0.40419983  0.61697434  0.27035232     0.07700
N97         N  0.19753706  0.93897187  0.02393387    -0.26600
N98         N  0.22151059  0.94588915  0.03696870    -0.34500
C99         C  0.22962868  0.96516004  0.01141534     0.01700
C100        C  0.20954715  0.97079927  0.98158148     0.07700
C101        C  0.18953965  0.95385945  0.99062878    -0.05400
H102        H  0.24834979  0.97485755  0.01535326     0.08400
H103        H  0.17050706  0.95243192  0.97419745     0.09600
Cu104      Cu  0.24027460  0.92971467  0.09222254     0.44200
Cu105      Cu  0.17644672  0.90984064  0.05245771     0.42000
Cu106      Cu  0.19919850  0.88610781  0.15979419     0.43900
N107        N  0.25258203  0.91239467  0.15188105    -0.34000
N108        N  0.23784499  0.89682684  0.17629811    -0.28300
C109        C  0.25181009  0.88949937  0.21272958    -0.04400
C110        C  0.27639244  0.90097213  0.21112005     0.07800
C111        C  0.27614829  0.91547032  0.17243159     0.01600
H112        H  0.24442292  0.87711738  0.23891953     0.09300
H113        H  0.29181089  0.92764847  0.16046610     0.08400
N114        N  0.16372784  0.87476244  0.12922202    -0.35500
N115        N  0.15677801  0.88211278  0.08792584    -0.27700
C116        C  0.13558694  0.86884373  0.07381400    -0.02900
C117        C  0.12820642  0.85257334  0.10822771     0.05700
C118        C  0.14645429  0.85717385  0.14316118     0.03800
H119        H  0.12681529  0.87032856  0.04006562     0.08900
H120        H  0.14777371  0.84775238  0.17561106     0.07700
N121        N  0.39086651  0.94329035  0.41354531    -0.26600
N122        N  0.36634526  0.94890420  0.40412289    -0.34500
C123        C  0.35932285  0.96826153  0.43071129     0.01700
C124        C  0.38051741  0.97537540  0.45778717     0.07700
C125        C  0.40027261  0.95924977  0.44595827    -0.05400
H126        H  0.34019487  0.97658115  0.43020927     0.08400
H127        H  0.41968741  0.95864222  0.46085030     0.09600
Cu128      Cu  0.34344676  0.93046418  0.35510947     0.44200
Cu129      Cu  0.40908404  0.91278693  0.38462226     0.42000
Cu130      Cu  0.36963348  0.87604366  0.30147895     0.43900
N131        N  0.32464005  0.91120788  0.30190916    -0.34000
N132        N  0.33397884  0.89106271  0.28203979    -0.28300
C133        C  0.31772967  0.88374512  0.24750014    -0.04400
C134        C  0.29733591  0.90012461  0.24577094     0.07800
C135        C  0.30242871  0.91733717  0.28051369     0.01600
H136        H  0.32099044  0.86817300  0.22439275     0.09300
H137        H  0.29119975  0.93350333  0.28887080     0.08400
N138        N  0.40610937  0.86577205  0.32685973    -0.35500
N139        N  0.42032541  0.87915585  0.35664656    -0.27700
C140        C  0.44182128  0.86668484  0.36787039    -0.02900
C141        C  0.44121091  0.84446438  0.34391185     0.05700
C142        C  0.41834841  0.84446793  0.31827654     0.03800
H143        H  0.45632433  0.87295322  0.39288834     0.08900
H144        H  0.41067685  0.82966261  0.29636979     0.07700
N145        N  0.39455111  0.02519699  0.54068658    -0.26600
N146        N  0.36858988  0.02333041  0.54452834    -0.34500
C147        C  0.35975082  0.00539310  0.51563180     0.01700
C148        C  0.38117906  0.99529820  0.49291838     0.07700
C149        C  0.40296872  0.00819600  0.50967666    -0.05400
H150        H  0.33924203  0.99991708  0.51189041     0.08400
H151        H  0.42332240  0.00587753  0.49920935     0.09600
Cu152      Cu  0.34628779  0.04431533  0.59034854     0.44200
Cu153      Cu  0.41679385  0.05230955  0.57468258     0.42000
Cu154      Cu  0.37990047  0.09450297  0.64935661     0.43900
N155        N  0.32937960  0.06417289  0.64462174    -0.34000
N156        N  0.34168883  0.08240969  0.66706018    -0.28300
C157        C  0.32637846  0.08975289  0.70311691    -0.04400
C158        C  0.30338355  0.07554413  0.70292423     0.07800
C159        C  0.30601466  0.05946523  0.66558999     0.01600
H160        H  0.33200290  0.10370327  0.72859657     0.09300
H161        H  0.29249929  0.04468016  0.65566674     0.08400
N162        N  0.41892687  0.10078218  0.62730316    -0.35500
N163        N  0.43261795  0.08483273  0.60223393    -0.27700
C164        C  0.45707051  0.09415225  0.59463517    -0.02900
C165        C  0.45892634  0.11731180  0.61525507     0.05700
C166        C  0.43428520  0.12084608  0.63559881     0.03800
H167        H  0.47225733  0.08481477  0.57495208     0.08900
H168        H  0.42789963  0.13700258  0.65462834     0.07700
N169        N  0.24327729  0.07740255  0.77286592    -0.26600
N170        N  0.25700515  0.06166370  0.79640064    -0.34500
C171        C  0.28096006  0.05953556  0.77626256     0.01700
C172        C  0.28244328  0.07481293  0.73862949     0.07700
C173        C  0.25815589  0.08569695  0.73719454    -0.05400
H174        H  0.29574019  0.04693362  0.78689834     0.08400
H175        H  0.25139347  0.09789708  0.71103670     0.09600
Cu176      Cu  0.24147848  0.04151111  0.85144353     0.44200
Cu177      Cu  0.20409139  0.08496283  0.78787000     0.42000
Cu178      Cu  0.17058100  0.04309958  0.86661465     0.43900
N179        N  0.22040648  0.01948761  0.89785700    -0.34000
N180        N  0.19436953  0.01900509  0.90103692    -0.28300
C181        C  0.18663729  0.00166086  0.93115183    -0.04400
C182        C  0.20884568  0.99094223  0.94829046     0.07800
C183        C  0.22992255  0.00276001  0.92659448     0.01600
H184        H  0.16632562  0.99741099  0.94040346     0.09300
H185        H  0.25060839  0.99900693  0.93040654     0.08400
N186        N  0.15264857  0.07287912  0.83726103    -0.35500
N187        N  0.16503764  0.08831872  0.80917371    -0.27700
C188        C  0.14925195  0.10719200  0.80114406    -0.02900
C189        C  0.12581052  0.10347600  0.82521607     0.05700
C190        C  0.12864316  0.08157702  0.84782242     0.03800
H191        H  0.15510362  0.12328086  0.78192193     0.08900
H192        H  0.11507245  0.07355234  0.87278295     0.07700
N193        N  0.51322770  0.74080586  0.36773080    -0.02800
C194        C  0.49440516  0.75441199  0.34758161    -0.00200
C195        C  0.47728720  0.73974373  0.32217872    -0.23100
C196        C  0.48508402  0.71625107  0.32662133    -0.23300
C197        C  0.50697319  0.71690489  0.35497965    -0.00300
H198        H  0.46044200  0.74560070  0.30302502     0.13400
H199        H  0.47583440  0.70062573  0.30934309     0.13500
N200        N  0.53169354  0.74961754  0.40140310    -0.02800
C201        C  0.54068228  0.77345692  0.40649155    -0.00200
C202        C  0.54771146  0.77824270  0.45195237    -0.23100
C203        C  0.54338281  0.75714716  0.47557046    -0.23300
C204        C  0.53424395  0.73964415  0.44390596    -0.00300
H205        H  0.55773172  0.79458108  0.46546284     0.13400
H206        H  0.54960181  0.75416815  0.51070544     0.13500
N207        N  0.52309890  0.69554319  0.36028703    -0.02800
C208        C  0.52019982  0.67464880  0.33388830    -0.00200
C209        C  0.54455584  0.66479284  0.32517459    -0.23100
C210        C  0.56242277  0.67907006  0.34954662    -0.23300
C211        C  0.54817621  0.69604414  0.37559009    -0.00300
H212        H  0.54857411  0.64747198  0.30775777     0.13400
H213        H  0.58283135  0.67455723  0.35372236     0.13500
N214        N  0.55242066  0.69873288  0.42482219    -0.02800
C215        C  0.56162199  0.68091394  0.45242595    -0.00200
C216        C  0.55266683  0.68412667  0.49737304    -0.23100
C217        C  0.53754188  0.70464047  0.49780000    -0.23300
C218        C  0.53789935  0.71345457  0.45302742    -0.00300
H219        H  0.55804928  0.67369472  0.52714372     0.13400
H220        H  0.52940703  0.71357809  0.52847412     0.13500
N221        N  0.89727091  0.43075551  0.00769242    -0.26600
N222        N  0.87682137  0.44109140  0.98865305    -0.34500
C223        C  0.87072477  0.46142785  0.01343583     0.01700
C224        C  0.88845749  0.46426364  0.04912769     0.07700
C225        C  0.90513364  0.44466998  0.04430356    -0.05400
H226        H  0.85475911  0.47340510  0.00566638     0.08400
H227        H  0.92118035  0.44033808  0.06680178     0.09600
Cu228      Cu  0.85780242  0.42762849  0.92975968     0.44200
Cu229      Cu  0.91148529  0.39650264  0.98786228     0.42000
Cu230      Cu  0.87011098  0.36513021  0.90369007     0.43900
N231        N  0.84108642  0.40883737  0.87371126    -0.34000
N232        N  0.84492535  0.38525454  0.86567386    -0.28300
C233        C  0.83088780  0.37757998  0.82878788    -0.04400
C234        C  0.81779563  0.39741186  0.81244068     0.07800
C235        C  0.82470985  0.41700798  0.84150507     0.01600
H236        H  0.83052505  0.35903480  0.81468869     0.09300
H237        H  0.81790236  0.43561265  0.84002669     0.08400
N238        N  0.89936977  0.34846350  0.93877779    -0.35500
N239        N  0.91538978  0.35971308  0.96856167    -0.27700
C240        C  0.93273730  0.34337252  0.98340428    -0.02900
C241        C  0.92718054  0.32095498  0.96158617     0.05700
C242        C  0.90588505  0.32488419  0.93384117     0.03800
H243        H  0.94822207  0.34748989  0.00796192     0.08900
H244        H  0.89598597  0.31161601  0.91123747     0.07700
N245        N  0.90475787  0.51267972  0.13302461    -0.26600
N246        N  0.87874249  0.51248777  0.13691481    -0.34500
C247        C  0.86876357  0.49529962  0.10728677     0.01700
C248        C  0.88957893  0.48397599  0.08462750     0.07700
C249        C  0.91203659  0.49533196  0.10195025    -0.05400
H250        H  0.84798468  0.49100446  0.10327802     0.08400
H251        H  0.93219807  0.49180394  0.09165394     0.09600
Cu252      Cu  0.85852382  0.53441650  0.18527787     0.44200
Cu253      Cu  0.92951060  0.53793868  0.16592658     0.42000
Cu254      Cu  0.90174438  0.57153588  0.26059699     0.43900
N255        N  0.84568486  0.55377159  0.24445971    -0.34000
N256        N  0.86187084  0.56561065  0.27330999    -0.28300
C257        C  0.84807539  0.57388657  0.31033720    -0.04400
C258        C  0.82189073  0.56747714  0.30409930     0.07800
C259        C  0.82098906  0.55471829  0.26210045     0.01600
H260        H  0.85651294  0.58387818  0.33960600     0.09300
H261        H  0.80387745  0.54579252  0.24663271     0.08400
N262        N  0.93834282  0.58025302  0.23205701    -0.35500
N263        N  0.94840779  0.56810655  0.19615387    -0.27700
C264        C  0.97012450  0.58021979  0.18084108    -0.02900
C265        C  0.97393238  0.60097599  0.20863679     0.05700
C266        C  0.95348311  0.60033982  0.24089657     0.03800
H267        H  0.98136279  0.57511015  0.15014623     0.08900
H268        H  0.94899783  0.61426244  0.26691894     0.07700
N269        N  0.70933463  0.52548133  0.49742260    -0.26600
N270        N  0.73537711  0.52587410  0.49768702    -0.34500
C271        C  0.74348976  0.50736773  0.52355086     0.01700
C272        C  0.72145076  0.49459885  0.53969577     0.07700
C273        C  0.70013190  0.50649292  0.52239402    -0.05400
H274        H  0.76390691  0.50320404  0.52933224     0.08400
H275        H  0.67948616  0.50210023  0.52844441     0.09600
Cu276      Cu  0.75832793  0.54967992  0.45806337     0.44200
Cu277      Cu  0.68779586  0.55167205  0.46532079     0.42000
Cu278      Cu  0.72163613  0.58722525  0.37883607     0.43900
N279        N  0.77459837  0.56570552  0.39940930    -0.34000
N280        N  0.76083793  0.57747751  0.36860401    -0.28300
C281        C  0.77586244  0.58067464  0.33023543    -0.04400
C282        C  0.80026248  0.57085912  0.33775539     0.07800
C283        C  0.79884771  0.56166462  0.38193195     0.01600
H284        H  0.76926106  0.58888943  0.29876632     0.09300
H285        H  0.81358253  0.55103109  0.39861633     0.08400
N286        N  0.68341495  0.59442431  0.40206204    -0.35500
N287        N  0.67147769  0.58152298  0.43477908    -0.27700
C288        C  0.64843271  0.59181508  0.44613645    -0.02900
C289        C  0.64536640  0.61212513  0.41898554     0.05700
C290        C  0.66793175  0.61312945  0.39117636     0.03800
H291        H  0.63531880  0.58550472  0.47351079     0.08900
H292        H  0.67314547  0.62693979  0.36604807     0.07700
N293        N  0.76949620  0.38587393  0.72237346    -0.26600
N294        N  0.77402070  0.40966015  0.71800946    -0.34500
C295        C  0.79224667  0.41737333  0.74867578     0.01700
C296        C  0.79971454  0.39736648  0.77331646     0.07700
C297        C  0.78506506  0.37763020  0.75570593    -0.05400
H298        H  0.79914355  0.43619304  0.75318697     0.08400
H299        H  0.78467720  0.35901425  0.76791671     0.09600
Cu300      Cu  0.75419953  0.43034561  0.67210471     0.44200
Cu301      Cu  0.73908303  0.36740131  0.68805984     0.42000
Cu302      Cu  0.69309069  0.40549770  0.62564304     0.43900
N303        N  0.73304475  0.44727377  0.62253666    -0.34000
N304        N  0.71018418  0.43908997  0.60617631    -0.28300
C305        C  0.70205620  0.45492476  0.57437971    -0.04400
C306        C  0.72104938  0.47351487  0.57042322     0.07800
C307        C  0.74034739  0.46802344  0.60130781     0.01600
H308        H  0.68415663  0.45267538  0.55463481     0.09300
H309        H  0.75840547  0.47837063  0.60806661     0.08400
N310        N  0.68459725  0.36968738  0.64698558    -0.35500
N311        N  0.70200514  0.35559999  0.66645599    -0.27700
C312        C  0.69028216  0.33409274  0.67738999    -0.02900
C313        C  0.66402110  0.33469231  0.66539841     0.05700
C314        C  0.66117089  0.35751390  0.64588951     0.03800
H315        H  0.69981175  0.31971246  0.69566019     0.08900
H316        H  0.64306433  0.36520173  0.63409116     0.07700
N317        N  0.03192445  0.75740064  0.13842659    -0.02800
C318        C  0.01521681  0.77409441  0.15745184    -0.00200
C319        C  0.01287790  0.77047581  0.20455748    -0.23100
C320        C  0.02842336  0.75099772  0.21434355    -0.23300
C321        C  0.03979527  0.74305071  0.17279507    -0.00300
H322        H  0.00005335  0.78005557  0.22874963     0.13400
H323        H  0.03009238  0.74271317  0.24789625     0.13500
N324        N  0.04624845  0.69945068  0.14833922    -0.02800
C325        C  0.04907716  0.68140056  0.17952583    -0.00200
C326        C  0.06457867  0.69005163  0.21542890    -0.23100
C327        C  0.06965122  0.71447246  0.20749500    -0.23300
C328        C  0.05581596  0.72061744  0.16832377    -0.00300
H329        H  0.06816782  0.68090519  0.24757506     0.13400
H330        H  0.07739290  0.72730163  0.23338549     0.13500
N331        N  0.03704575  0.69550404  0.10231109    -0.02800
C332        C  0.03643061  0.67331373  0.07952101    -0.00200
C333        C  0.02047529  0.67451468  0.04141830    -0.23100
C334        C  0.01248389  0.69835886  0.03939846    -0.23300
C335        C  0.02468041  0.71162994  0.07509680    -0.00300
H336        H  0.01804118  0.66067393  0.01424258     0.13400
H337        H  0.00328799  0.70605888  0.00953510     0.13500
N338        N  0.04036964  0.75556869  0.09202180    -0.02800
C339        C  0.05459743  0.77262331  0.06808246    -0.00200
C340        C  0.05874011  0.76413989  0.02319611    -0.23100
C341        C  0.04712428  0.74111978  0.02004887    -0.23300
C342        C  0.03630358  0.73603168  0.06330357    -0.00300
H343        H  0.07071013  0.77291485  0.99669859     0.13400
H344        H  0.04798345  0.72880483  0.99014749     0.13500
N345        N  0.55866012  0.25804048  0.70853676    -0.02800
C346        C  0.57178354  0.27921730  0.72118981    -0.00200
C347        C  0.55653420  0.29342341  0.75056134    -0.23100
C348        C  0.53347933  0.28058202  0.75729649    -0.23300
C349        C  0.53507198  0.25909704  0.73089470    -0.00300
H350        H  0.56136027  0.31160063  0.76425637     0.13400
H351        H  0.51625259  0.28760554  0.77515772     0.13500
N352        N  0.50622501  0.24898480  0.66722004    -0.02800
C353        C  0.47992439  0.25270736  0.66366666    -0.00200
C354        C  0.46798162  0.25160287  0.70691801    -0.23100
C355        C  0.48761983  0.24821819  0.73810754    -0.23300
C356        C  0.51101484  0.24762935  0.71286170    -0.00300
H357        H  0.44786803  0.25626596  0.71555769     0.13400
H358        H  0.48555447  0.25019021  0.77539865     0.13500
N359        N  0.56007459  0.21689299  0.66572165    -0.02800
C360        C  0.57941007  0.19959625  0.66316648    -0.00200
C361        C  0.60125632  0.20746321  0.68782285    -0.23100
C362        C  0.59600263  0.23003145  0.70618815    -0.23300
C363        C  0.57103897  0.23575455  0.69215878    -0.00300
H364        H  0.61928237  0.19757978  0.69205679     0.13400
H365        H  0.60892019  0.24083831  0.72852597     0.13500
N366        N  0.53586609  0.21714308  0.64084229    -0.02800
C367        C  0.52949169  0.20109862  0.60563286    -0.00200
C368        C  0.51874619  0.21431609  0.57015878    -0.23100
C369        C  0.51545488  0.23777873  0.58628653    -0.23300
C370        C  0.52321732  0.23828618  0.63194173    -0.00300
H371        H  0.50886424  0.20693513  0.53974970     0.13400
H372        H  0.50355960  0.25100137  0.56944409     0.13500
N373        N  0.81559275  0.87291343  0.13111529    -0.26600
N374        N  0.80559784  0.89121211  0.10829161    -0.34500
C375        C  0.78226853  0.89714869  0.12752765     0.01700
C376        C  0.77698038  0.88165222  0.16383448     0.07700
C377        C  0.79857343  0.86658996  0.16546644    -0.05400
H378        H  0.77052627  0.91230167  0.11701561     0.08400
H379        H  0.80226056  0.85297928  0.19116073     0.09600
Cu380      Cu  0.82486102  0.90883807  0.05443434     0.44200
Cu381      Cu  0.85350185  0.85993951  0.11684670     0.42000
Cu382      Cu  0.89338476  0.89522697  0.03338889     0.43900
N383        N  0.84772095  0.92557802  0.00385301    -0.34000
N384        N  0.87313172  0.92159033  0.99755136    -0.28300
C385        C  0.88250042  0.93644409  0.96417822    -0.04400
C386        C  0.86187584  0.95002481  0.94831378     0.07800
C387        C  0.84012248  0.94263930  0.97412900     0.01600
H388        H  0.90277952  0.93717266  0.95208631     0.09300
H389        H  0.82041294  0.94968924  0.97252984     0.08400
N390        N  0.90740591  0.86566215  0.06983396    -0.35500
N391        N  0.89288835  0.85270117  0.09942226    -0.27700
C392        C  0.90777321  0.83495268  0.11649907    -0.02900
C393        C  0.93281840  0.83674932  0.09682517     0.05700
C394        C  0.93183128  0.85645109  0.06741474     0.03800
H395        H  0.90096486  0.82181662  0.14181959     0.08900
H396        H  0.94771767  0.86356224  0.04582021     0.07700
N397        N  0.84013883  0.05467411  0.73235374    -0.26600
N398        N  0.82526862  0.03726858  0.75178740    -0.34500
C399        C  0.80159989  0.03618499  0.73112701     0.01700
C400        C  0.80123813  0.05381484  0.69749003     0.07700
C401        C  0.82601938  0.06510029  0.69893524    -0.05400
H402        H  0.78585322  0.02329065  0.73968433     0.08400
H403        H  0.83336657  0.07959244  0.67688075     0.09600
Cu404      Cu  0.83666479  0.01498201  0.80575742     0.44200
Cu405      Cu  0.87933181  0.06368196  0.75150356     0.42000
Cu406      Cu  0.90185292  0.02748351  0.84437095     0.43900
N407        N  0.85379458  0.99538974  0.85855136    -0.34000
N408        N  0.87844425  0.99979341  0.87094683    -0.28300
C409        C  0.88499215  0.98418490  0.90396198    -0.04400
C410        C  0.86333297  0.96933978  0.91352669     0.07800
C411        C  0.84374431  0.97695351  0.88433998     0.01600
H412        H  0.90399536  0.98405858  0.92051425     0.09300
H413        H  0.82387442  0.96944569  0.88162979     0.08400
N414        N  0.92376206  0.05621508  0.81784335    -0.35500
N415        N  0.91649393  0.06941590  0.78259547    -0.27700
C416        C  0.93492290  0.08738746  0.77614019    -0.02900
C417        C  0.95428946  0.08567281  0.80982052     0.05700
C418        C  0.94633320  0.06555218  0.83527484     0.03800
H419        H  0.93357501  0.10143941  0.75047475     0.08900
H420        H  0.95544590  0.05904440  0.86622993     0.07700
N421        N  0.67373111  0.93903404  0.37429348    -0.26600
N422        N  0.69822924  0.94360710  0.36027086    -0.34500
C423        C  0.70800038  0.96310471  0.38454922     0.01700
C424        C  0.68853517  0.97149530  0.41469160     0.07700
C425        C  0.66702758  0.95586949  0.40704120    -0.05400
H426        H  0.72780430  0.97063004  0.38055266     0.08400
H427        H  0.64827064  0.95609567  0.42530565     0.09600
Cu428      Cu  0.71657218  0.92283699  0.30807985     0.44200
Cu429      Cu  0.65198360  0.90838368  0.35086726     0.42000
Cu430      Cu  0.67782328  0.87254083  0.25291044     0.43900
N431        N  0.73030413  0.90049649  0.25373107    -0.34000
N432        N  0.71651897  0.88235265  0.23363977    -0.28300
C433        C  0.73142122  0.87210640  0.19963592    -0.04400
C434        C  0.75563129  0.88435210  0.19847540     0.07800
C435        C  0.75411157  0.90234945  0.23279786     0.01600
H436        H  0.72486009  0.85729352  0.17667153     0.09300
H437        H  0.76906110  0.91614229  0.24134405     0.08400
N438        N  0.64223873  0.86407074  0.28709411    -0.35500
N439        N  0.63427885  0.87609572  0.32480113    -0.27700
C440        C  0.61330843  0.86408726  0.34305796    -0.02900
C441        C  0.60688280  0.84377064  0.31505490     0.05700
C442        C  0.62575292  0.84462756  0.27949305     0.03800
H443        H  0.60385162  0.86942815  0.37542307     0.08900
H444        H  0.62776598  0.83198775  0.25042243     0.07700
N445        N  0.74112343  0.06775493  0.63553872    -0.26600
N446        N  0.75120061  0.05053752  0.60802582    -0.34500
C447        C  0.77457338  0.04391784  0.62476156     0.01700
C448        C  0.77978352  0.05774072  0.66447723     0.07700
C449        C  0.75804274  0.07252125  0.67058541    -0.05400
H450        H  0.78638612  0.02931312  0.61018814     0.08400
H451        H  0.75432233  0.08505584  0.69941079     0.09600
Cu452      Cu  0.73148801  0.03473757  0.55163546     0.44200
Cu453      Cu  0.70358071  0.08220239  0.62482241     0.42000
Cu454      Cu  0.66303898  0.05045022  0.53673377     0.43900
N455        N  0.70697146  0.01761764  0.50289873    -0.34000
N456        N  0.68157926  0.02211139  0.49931494    -0.28300
C457        C  0.67103075  0.00639177  0.46744437    -0.04400
C458        C  0.69083799  0.99169011  0.44959844     0.07800
C459        C  0.71333708  0.99941403  0.47277184     0.01600
H460        H  0.65053856  0.00589781  0.45755458     0.09300
H461        H  0.73276770  0.99180622  0.46911502     0.08400
N462        N  0.65098290  0.08178393  0.57416353    -0.35500
N463        N  0.66568642  0.09318086  0.60600308    -0.27700
C464        C  0.65259598  0.11276968  0.62279329    -0.02900
C465        C  0.62862309  0.11396339  0.60048624     0.05700
C466        C  0.62827609  0.09397985  0.56986898     0.03800
H467        H  0.66005884  0.12544017  0.64918413     0.08900
H468        H  0.61269511  0.08873114  0.54614222     0.07700
N469        N  0.02610878  0.17264638  0.92159340    -0.02800
C470        C  0.02432180  0.14781149  0.91453969    -0.00200
C471        C  0.02074796  0.13698120  0.95720386    -0.23100
C472        C  0.01710973  0.15550899  0.98936170    -0.23300
C473        C  0.01760360  0.17720040  0.96540875    -0.00300
H474        H  0.01558011  0.11791436  0.96309274     0.13400
H475        H  0.00834197  0.15281111  0.02336418     0.13500
N476        N  0.99510034  0.21709572  0.96596422    -0.02800
C477        C  0.97001840  0.22452331  0.97169573    -0.00200
C478        C  0.95330626  0.20461856  0.97928878    -0.23100
C479        C  0.96903184  0.18439737  0.97951710    -0.23300
C480        C  0.99471964  0.19288777  0.97209328    -0.00300
H481        H  0.93214192  0.20481373  0.98424771     0.13400
H482        H  0.96240165  0.16555256  0.98370562     0.13500
N483        N  0.03795198  0.23101641  0.93383781    -0.02800
C484        C  0.05458484  0.25029186  0.94602962    -0.00200
C485        C  0.04588780  0.26193087  0.98624037    -0.23100
C486        C  0.02281294  0.25044487  0.99894689    -0.23300
C487        C  0.01837243  0.23211275  0.96616196    -0.00300
H488        H  0.05464736  0.27810100  0.00286203     0.13400
H489        H  0.01021910  0.25536856  0.02803468     0.13500
N490        N  0.03929533  0.18971766  0.89183009    -0.02800
C491        C  0.05390522  0.18301803  0.85391891    -0.00200
C492        C  0.06027057  0.20325853  0.82791599    -0.23100
C493        C  0.05082691  0.22324017  0.85178460    -0.23300
C494        C  0.03935942  0.21504512  0.89261333    -0.00300
H495        H  0.07312201  0.20378535  0.79770582     0.13400
H496        H  0.05459887  0.24219746  0.84197289     0.13500
C497        C  0.00050508  0.09499561  0.83702888    -0.01200
C498        C  0.97570928  0.10360402  0.82379760     0.08500
C499        C  0.97047591  0.12876991  0.83061407    -0.01300
C500        C  0.98909354  0.14464714  0.85262189    -0.01300
C501        C  0.01190781  0.13509346  0.87303894     0.08600
C502        C  0.01800121  0.11030630  0.86287029    -0.01500
Br503      Br  0.04930814  0.09639839  0.88778762    -0.00100
Br504      Br  0.01029839  0.06179226  0.82119133    -0.00100
Br505      Br  0.98140624  0.17908104  0.85623801    -0.00100
Br506      Br  0.93622160  0.14134919  0.81671663    -0.00100
C507        C  0.59259767  0.17416796  0.59411461    -0.01200
C508        C  0.58041252  0.17531867  0.63847489     0.08500
C509        C  0.58024156  0.15409142  0.66590844    -0.01300
C510        C  0.59365654  0.13292510  0.65085735    -0.01300
C511        C  0.60819155  0.13287045  0.60896065     0.08600
C512        C  0.60622283  0.15295288  0.57926691    -0.01500
Br513      Br  0.62439941  0.15228145  0.52017536    -0.00100
Br514      Br  0.59452819  0.20324777  0.55717585    -0.00100
Br515      Br  0.59374799  0.10438544  0.68923584    -0.00100
Br516      Br  0.56624628  0.15548206  0.72835292    -0.00100
C517        C  0.95418951  0.79562842  0.09714713    -0.01200
C518        C  0.95573285  0.82114068  0.10642510     0.08500
C519        C  0.97849846  0.83135260  0.12770468    -0.01300
C520        C  0.99883451  0.81602380  0.14171342    -0.01300
C521        C  0.99718809  0.79044541  0.13293349     0.08600
C522        C  0.97476192  0.78038615  0.11032586    -0.01500
Br523      Br  0.97045067  0.74539546  0.10214471    -0.00100
Br524      Br  0.92353469  0.78135375  0.06698690    -0.00100
Br525      Br  0.02842454  0.82994185  0.17546384    -0.00100
Br526      Br  0.98106788  0.86615094  0.14108625    -0.00100
C527        C  0.62484555  0.30772101  0.64451746    -0.01200
C528        C  0.64259716  0.31694885  0.67836237     0.08500
C529        C  0.63894703  0.31009399  0.72510404    -0.01300
C530        C  0.61701138  0.29540984  0.73798008    -0.01300
C531        C  0.59815644  0.28792950  0.70477728     0.08600
C532        C  0.60265458  0.29327776  0.65768580    -0.01500
Br533      Br  0.57757771  0.28239826  0.61150117    -0.00100
Br534      Br  0.63074035  0.31499118  0.57995878    -0.00100
Br535      Br  0.61233447  0.28592712  0.80189111    -0.00100
Br536      Br  0.66210432  0.32260137  0.77322356    -0.00100
C537        C  0.98422525  0.64497531  0.19133327    -0.01200
C538        C  0.99315996  0.62137187  0.20086248     0.08500
C539        C  0.02043665  0.61737093  0.20332010    -0.01300
C540        C  0.03874261  0.63685885  0.19619914    -0.01300
C541        C  0.02989932  0.66044566  0.18552752     0.08600
C542        C  0.00241236  0.66451695  0.18488525    -0.01500
Br543      Br  0.98884494  0.69714746  0.18079860    -0.00100
Br544      Br  0.94693249  0.65060047  0.18531241    -0.00100
Br545      Br  0.07592201  0.63107413  0.20173654    -0.00100
Br546      Br  0.03271515  0.58522159  0.21761862    -0.00100
C547        C  0.94089360  0.28536966  0.00819730    -0.01200
C548        C  0.94082598  0.29752405  0.96555762     0.08500
C549        C  0.95181851  0.28621363  0.92550823    -0.01300
C550        C  0.96199293  0.26253518  0.92776186    -0.01300
C551        C  0.96141703  0.25016312  0.97008986     0.08600
C552        C  0.95133239  0.26177043  0.01047136    -0.01500
Br553      Br  0.95194947  0.24531160  0.06902178    -0.00100
Br554      Br  0.92496974  0.30013112  0.06283360    -0.00100
Br555      Br  0.97521044  0.24651178  0.87216775    -0.00100
Br556      Br  0.95303987  0.30311842  0.86731225    -0.00100
C557        C  0.60914864  0.67202524  0.43809848    -0.01200
C558        C  0.58274072  0.66350543  0.44001574     0.08500
C559        C  0.57676666  0.63842776  0.43222046    -0.01300
C560        C  0.59716202  0.62183376  0.42304629    -0.01300
C561        C  0.62382217  0.63010283  0.42334765     0.08600
C562        C  0.62967824  0.65538599  0.43078806    -0.01500
Br563      Br  0.66569078  0.66738716  0.43527372    -0.00100
Br564      Br  0.61712820  0.70665588  0.44633085    -0.00100
Br565      Br  0.58824075  0.58792237  0.40846580    -0.00100
Br566      Br  0.54051537  0.62698221  0.43338566    -0.00100
C567        C  0.54665222  0.81542934  0.37306718    -0.01200
C568        C  0.55142780  0.78995646  0.36966654     0.08500
C569        C  0.57200137  0.78192764  0.33992477    -0.01300
C570        C  0.58987891  0.79915279  0.31982821    -0.01300
C571        C  0.58577865  0.82473941  0.32555511     0.08600
C572        C  0.56225386  0.83226416  0.34781764    -0.01500
Br573      Br  0.55062678  0.86561902  0.34306292    -0.00100
Br574      Br  0.52103540  0.82828975  0.41680196    -0.00100
Br575      Br  0.62104167  0.78682384  0.28913089    -0.00100
Br576      Br  0.57799537  0.74732941  0.33100980    -0.00100
C577        C  0.08736489  0.15425832  0.88433435    -0.01200
C578        C  0.06950889  0.16028617  0.84927713     0.08500
C579        C  0.06928512  0.14649399  0.80728645    -0.01300
C580        C  0.08729778  0.12748160  0.79976874    -0.01300
C581        C  0.10553841  0.12205881  0.83423477     0.08600
C582        C  0.10523076  0.13520773  0.87680431    -0.01500
Br583      Br  0.13023988  0.12790326  0.92425081    -0.00100
Br584      Br  0.08892483  0.17268263  0.94207872    -0.00100
Br585      Br  0.08693042  0.10863602  0.74244165    -0.00100
Br586      Br  0.04397557  0.15344100  0.76033622    -0.00100
C587        C  0.48925528  0.14734694  0.65631002    -0.01200
C588        C  0.48174757  0.13511154  0.61487274     0.08500
C589        C  0.49524284  0.14104478  0.57331107    -0.01300
C590        C  0.51502676  0.15968863  0.57332968    -0.01300
C591        C  0.51858760  0.17539870  0.61276839     0.08600
C592        C  0.50611583  0.16830397  0.65514132    -0.01500
Br593      Br  0.50894905  0.18742834  0.71190888    -0.00100
Br594      Br  0.47664744  0.13505028  0.71522030    -0.00100
Br595      Br  0.53655079  0.16410184  0.51817089    -0.00100
Br596      Br  0.48477415  0.12615841  0.51481642    -0.00100
C597        C  0.45781256  0.80951143  0.38929753    -0.01200
C598        C  0.45913883  0.82373407  0.34901400     0.08500
C599        C  0.47652339  0.81723885  0.31254286    -0.01300
C600        C  0.49140954  0.79588353  0.31525218    -0.01300
C601        C  0.48874692  0.78070920  0.35411947     0.08600
C602        C  0.47259027  0.78803057  0.39180974    -0.01500
Br603      Br  0.46943376  0.76771843  0.44556886    -0.00100
Br604      Br  0.43416036  0.81832722  0.43952810    -0.00100
Br605      Br  0.51414881  0.78623196  0.26418970    -0.00100
Br606      Br  0.47884258  0.83686646  0.25775892    -0.00100
C607        C  0.11333017  0.80817714  0.11653073    -0.01200
C608        C  0.10756559  0.83254819  0.10469616     0.08500
C609        C  0.08267622  0.83718890  0.08537503    -0.01300
C610        C  0.06483368  0.81763560  0.07502011    -0.01300
C611        C  0.07040366  0.79354662  0.08775970     0.08600
C612        C  0.09454765  0.78902291  0.10927673    -0.01500
Br613      Br  0.10364755  0.75590488  0.12324580    -0.00100
Br614      Br  0.14812117  0.79968797  0.13649383    -0.00100
Br615      Br  0.03348742  0.82354134  0.04011407    -0.00100
Br616      Br  0.07236000  0.87028273  0.07330971    -0.00100
C617        C  0.45817790  0.63644728  0.36407513    -0.01200
C618        C  0.45394240  0.62337058  0.32198004     0.08500
C619        C  0.46946813  0.62935242  0.28270642    -0.01300
C620        C  0.48955297  0.64766997  0.28584985    -0.01300
C621        C  0.49520903  0.65952333  0.32876804     0.08600
C622        C  0.47863011  0.65444102  0.36760115    -0.01500
Br623      Br  0.48382335  0.67119827  0.42657261    -0.00100
Br624      Br  0.43579841  0.62965929  0.41721086    -0.00100
Br625      Br  0.50863986  0.65732708  0.23060036    -0.00100
Br626      Br  0.46466946  0.61110264  0.22524606    -0.00100
C627        C  0.42716965  0.27270801  0.58319048    -0.01200
C628        C  0.43421947  0.29774061  0.57817562     0.08500
C629        C  0.45929882  0.30635682  0.59275690    -0.01300
C630        C  0.47570975  0.29081263  0.61723639    -0.01300
C631        C  0.46732875  0.26643652  0.62637108     0.08600
C632        C  0.44376408  0.25710118  0.60699497    -0.01500
Br633      Br  0.43385361  0.22306108  0.61515929    -0.00100
Br634      Br  0.39432203  0.25990847  0.55860566    -0.00100
Br635      Br  0.50824991  0.30406315  0.64247471    -0.00100
Br636      Br  0.47027968  0.34013166  0.58399527    -0.00100
C637        C  0.09101011  0.29742707  0.87355866    -0.01200
C638        C  0.11743303  0.29299388  0.88444007     0.08500
C639        C  0.12329922  0.27272583  0.91162719    -0.01300
C640        C  0.10277800  0.25738211  0.92892226    -0.01300
C641        C  0.07628504  0.26182842  0.91827276     0.08600
C642        C  0.07055000  0.28208251  0.89069155    -0.01500
Br643      Br  0.03434314  0.29027712  0.88014119    -0.00100
Br644      Br  0.08270484  0.32557424  0.83750516    -0.00100
Br645      Br  0.11069506  0.23236920  0.97227956    -0.00100
Br646      Br  0.15926354  0.26755119  0.92905440    -0.00100
C647        C  0.04998202  0.62897670  0.08398456    -0.01200
C648        C  0.05706031  0.65421442  0.08298816     0.08500
C649        C  0.08412127  0.66105612  0.08031035    -0.01300
C650        C  0.10372422  0.64320757  0.08251454    -0.01300
C651        C  0.09665419  0.61808886  0.08604388     0.08600
C652        C  0.06961767  0.61107135  0.08616909    -0.01500
Br653      Br  0.05918728  0.57696730  0.09169531    -0.00100
Br654      Br  0.01331567  0.61870781  0.08196950    -0.00100
Br655      Br  0.14037573  0.65332662  0.07679662    -0.00100
Br656      Br  0.09477012  0.69445314  0.06716590    -0.00100
loop_ 
_geom_bond_atom_site_label_1 
_geom_bond_atom_site_label_2 
_geom_bond_distance 
_geom_bond_site_symmetry_2 
_ccdc_geom_bond_type 
N1            N2   1.322   1_556  A
N1            C5   1.346       .  A
N1           Cu9   2.078   1_556  S
N2            C3   1.345   1_554  A
N2           Cu8   2.071       .  S
C3            C4   1.381       .  A
C3            H6   1.082       .  S
C4            C5   1.381       .  A
C4           C28   1.464       .  S
C5            H7   1.082       .  S
Cu8          N11   2.072       .  S
Cu9          N19   2.080       .  S
Cu10         N12   2.103       .  S
Cu10         N18   2.104       .  S
N11          N12   1.324       .  A
N11          C15   1.345       .  A
N12          C13   1.351       .  A
C13          C14   1.386       .  A
C13          H16   1.082       .  S
C14          C15   1.379       .  A
C14          C86   1.472       .  S
C15          H17   1.082       .  S
N18          N19   1.323       .  A
N18          C22   1.350       .  A
N19          C20   1.347       .  A
C20          C21   1.385       .  A
C20          H23   1.082       .  S
C21          C22   1.392       .  A
C21         C651   1.495       .  S
C22          H24   1.081       .  S
N25          N26   1.321       .  A
N25          C29   1.345       .  A
N25         Cu33   2.069       .  S
N26          C27   1.346       .  A
N26         Cu32   2.070       .  S
C27          C28   1.382       .  A
C27          H30   1.082       .  S
C28          C29   1.380       .  A
C29          H31   1.082       .  S
Cu32         N35   2.070       .  S
Cu33         N43   2.069       .  S
Cu34         N36   2.103       .  S
Cu34         N42   2.102       .  S
N35          N36   1.325       .  A
N35          C39   1.345       .  A
N36          C37   1.349       .  A
C37          C38   1.387       .  A
C37          H40   1.081       .  S
C38          C39   1.379       .  A
C38          C62   1.473       .  S
C39          H41   1.082       .  S
N42          N43   1.324       .  A
N42          C46   1.352       .  A
N43          C44   1.343       .  A
C44          C45   1.379       .  A
C44          H47   1.082       .  S
C45          C46   1.389       .  A
C45         C638   1.483       .  S
C46          H48   1.081       .  S
N49          N50   1.325       .  A
N49          C53   1.350       .  A
N49         Cu57   2.091       .  S
N50          C51   1.345       .  A
N50         Cu56   2.089       .  S
C51          C52   1.382       .  A
C51          H54   1.082       .  S
C52          C53   1.384       .  A
C52          C76   1.473       .  S
C53          H55   1.082       .  S
Cu56         N59   2.088       .  S
Cu57         N67   2.089       .  S
Cu58         N60   2.064       .  S
Cu58         N66   2.065       .  S
N59          N60   1.321       .  A
N59          C63   1.348       .  A
N60          C61   1.345       .  A
C61          C62   1.380       .  A
C61          H64   1.082       .  S
C62          C63   1.388       .  A
C63          H65   1.082       .  S
N66          N67   1.322       .  A
N66          C70   1.341       .  A
N67          C68   1.350       .  A
C68          C69   1.389       .  A
C68          H71   1.082       .  S
C69          C70   1.381       .  A
C69         C628   1.484       .  S
C70          H72   1.082       .  S
N73          N74   1.323       .  A
N73          C77   1.352       .  A
N73         Cu81   2.101       .  S
N74          C75   1.342       .  A
N74         Cu80   2.065       .  S
C75          C76   1.378       .  A
C75          H78   1.082       .  S
C76          C77   1.389       .  A
C77          H79   1.082       .  S
Cu80         N83   2.066       .  S
Cu81         N91   2.102       .  S
Cu82         N84   2.095       .  S
Cu82         N90   2.096       .  S
N83          N84   1.322       .  A
N83          C87   1.345       .  A
N84          C85   1.350       .  A
C85          C86   1.387       .  A
C85          H88   1.081       .  S
C86          C87   1.381       .  A
C87          H89   1.081       .  S
N90          N91   1.326       .  A
N90          C94   1.349       .  A
N91          C92   1.349       .  A
C92          C93   1.387       .  A
C92          H95   1.082       .  S
C93          C94   1.385       .  A
C93         C618   1.491       .  S
C94          H96   1.082       .  S
N97          N98   1.322       .  A
N97         C101   1.344   1_554  A
N97        Cu105   2.073       .  S
N98          C99   1.350       .  A
N98        Cu104   2.090       .  S
C99         C100   1.387   1_554  A
C99         H102   1.082       .  S
C100        C101   1.382       .  A
C100        C182   1.476       .  S
C101        H103   1.082       .  S
Cu104       N107   2.091       .  S
Cu105       N115   2.072       .  S
Cu106       N108   2.091       .  S
Cu106       N114   2.090       .  S
N107        N108   1.325       .  A
N107        C111   1.347       .  A
N108        C109   1.349       .  A
C109        C110   1.383       .  A
C109        H112   1.081       .  S
C110        C111   1.382       .  A
C110        C134   1.471       .  S
C111        H113   1.081       .  S
N114        N115   1.320       .  A
N114        C118   1.348       .  A
N115        C116   1.344       .  A
C116        C117   1.387       .  A
C116        H119   1.081       .  S
C117        C118   1.392       .  A
C117        C608   1.497       .  S
C118        H120   1.081       .  S
N121        N122   1.322       .  A
N121        C125   1.347       .  A
N121       Cu129   2.076       .  S
N122        C123   1.343       .  A
N122       Cu128   2.070       .  S
C123        C124   1.381       .  A
C123        H126   1.082       .  S
C124        C125   1.384       .  A
C124        C148   1.469       .  S
C125        H127   1.082       .  S
Cu128       N131   2.071       .  S
Cu129       N139   2.076       .  S
Cu130       N132   2.093       .  S
Cu130       N138   2.094       .  S
N131        N132   1.323       .  A
N131        C135   1.345       .  A
N132        C133   1.349       .  A
C133        C134   1.386       .  A
C133        H136   1.082       .  S
C134        C135   1.380       .  A
C135        H137   1.082       .  S
N138        N139   1.325       .  A
N138        C142   1.347       .  A
N139        C140   1.346       .  A
C140        C141   1.381       .  A
C140        H143   1.082       .  S
C141        C142   1.384       .  A
C141        C598   1.479       .  S
C142        H144   1.082       .  S
N145        N146   1.322       .  A
N145        C149   1.347       .  A
N145       Cu153   2.075       .  S
N146        C147   1.343       .  A
N146       Cu152   2.072       .  S
C147        C148   1.381   1_545  A
C147        H150   1.082   1_545  S
C148        C149   1.383   1_565  A
C149        H151   1.082       .  S
Cu152       N155   2.072       .  S
Cu153       N163   2.075       .  S
Cu154       N156   2.093       .  S
Cu154       N162   2.095       .  S
N155        N156   1.323       .  A
N155        C159   1.345       .  A
N156        C157   1.349       .  A
C157        C158   1.385       .  A
C157        H160   1.082       .  S
C158        C159   1.380       .  A
C158        C172   1.470       .  S
C159        H161   1.082       .  S
N162        N163   1.323       .  A
N162        C166   1.347       .  A
N163        C164   1.347       .  A
C164        C165   1.385       .  A
C164        H167   1.082       .  S
C165        C166   1.390       .  A
C165        C588   1.493       .  S
C166        H168   1.082       .  S
N169        N170   1.323       .  A
N169        C173   1.348       .  A
N169       Cu177   2.079       .  S
N170        C171   1.347       .  A
N170       Cu176   2.085       .  S
C171        C172   1.383       .  A
C171        H174   1.082       .  S
C172        C173   1.383       .  A
C173        H175   1.082       .  S
Cu176       N179   2.085       .  S
Cu177       N187   2.078       .  S
Cu178       N180   2.083       .  S
Cu178       N186   2.082       .  S
N179        N180   1.323       .  A
N179        C183   1.348       .  A
N180        C181   1.346       .  A
C181        C182   1.384   1_545  A
C181        H184   1.082   1_545  S
C182        C183   1.385   1_565  A
C183        H185   1.082   1_545  S
N186        N187   1.323       .  A
N186        C190   1.347       .  A
N187        C188   1.345       .  A
C188        C189   1.382       .  A
C188        H191   1.081       .  S
C189        C190   1.384       .  A
C189        C581   1.478       .  S
C190        H192   1.082       .  S
N193        C197   1.377       .  A
N193        C194   1.367       .  A
N193        N200   1.426       .  S
C194        C195   1.374       .  A
C194        C601   1.477       .  S
C195        C196   1.359       .  A
C195        H198   1.083       .  S
C196        C197   1.388       .  A
C196        H199   1.078       .  S
C197        N207   1.452       .  S
N200        C204   1.361       .  A
N200        C201   1.372       .  A
C201        C202   1.381       .  A
C201        C568   1.496       .  S
C202        C203   1.361       .  A
C202        H205   1.083       .  S
C203        C204   1.382       .  A
C203        H206   1.082       .  S
C204        C218   1.474       .  S
N207        C211   1.352       .  A
N207        C208   1.362       .  A
C208        C209   1.378       .  A
C208        C621   1.503       .  S
C209        C210   1.372       .  A
C209        H212   1.082       .  S
C210        C211   1.389       .  A
C210        H213   1.079       .  S
C211        N214   1.443       .  S
N214        C218   1.354       .  A
N214        C215   1.365       .  A
C215        C216   1.377       .  A
C215        C558   1.484       .  S
C216        C217   1.372       .  A
C216        H219   1.082       .  S
C217        C218   1.388       .  A
C217        H220   1.082       .  S
N221        N222   1.324   1_554  A
N221        C225   1.346       .  A
N221       Cu229   2.084   1_554  S
N222        C223   1.346   1_556  A
N222       Cu228   2.076       .  S
C223        C224   1.380       .  A
C223        H226   1.082       .  S
C224        C225   1.382       .  A
C224        C248   1.468       .  S
C225        H227   1.082       .  S
Cu228       N231   2.075       .  S
Cu229       N239   2.083       .  S
Cu230       N232   2.049       .  S
Cu230       N238   2.050       .  S
N231        N232   1.320       .  A
N231        C235   1.345       .  A
N232        C233   1.342       .  A
C233        C234   1.378       .  A
C233        H236   1.081       .  S
C234        C235   1.385       .  A
C234        C296   1.464       .  S
C235        H237   1.081       .  S
N238        N239   1.322       .  A
N238        C242   1.339       .  A
N239        C240   1.348       .  A
C240        C241   1.387       .  A
C240        H243   1.081   1_556  S
C241        C242   1.377       .  A
C241        C548   1.475       .  S
C242        H244   1.082       .  S
N245        N246   1.323       .  A
N245        C249   1.343       .  A
N245       Cu253   2.065       .  S
N246        C247   1.348       .  A
N246       Cu252   2.092       .  S
C247        C248   1.385       .  A
C247        H250   1.082       .  S
C248        C249   1.378       .  A
C249        H251   1.082       .  S
Cu252       N255   2.092       .  S
Cu253       N263   2.066       .  S
Cu254       N256   2.071       .  S
Cu254       N262   2.070       .  S
N255        N256   1.324       .  A
N255        C259   1.348       .  A
N256        C257   1.345       .  A
C257        C258   1.379       .  A
C257        H260   1.082       .  S
C258        C259   1.384       .  A
C258        C282   1.468       .  S
C259        H261   1.082       .  S
N262        N263   1.320       .  A
N262        C266   1.344       .  A
N263        C264   1.345       .  A
C264        C265   1.383       .  A
C264        H267   1.081       .  S
C265        C266   1.385       .  A
C265        C538   1.480       .  S
C266        H268   1.082       .  S
N269        N270   1.322       .  A
N269        C273   1.345       .  A
N269       Cu277   2.062       .  S
N270        C271   1.344       .  A
N270       Cu276   2.074       .  S
C271        C272   1.384       .  A
C271        H274   1.082       .  S
C272        C273   1.380       .  A
C272        C306   1.467       .  S
C273        H275   1.082       .  S
Cu276       N279   2.073       .  S
Cu277       N287   2.064       .  S
Cu278       N280   2.087       .  S
Cu278       N286   2.087       .  S
N279        N280   1.324       .  A
N279        C283   1.345       .  A
N280        C281   1.347       .  A
C281        C282   1.383       .  A
C281        H284   1.082       .  S
C282        C283   1.380       .  A
C283        H285   1.082       .  S
N286        N287   1.321       .  A
N286        C290   1.348       .  A
N287        C288   1.343       .  A
C288        C289   1.383       .  A
C288        H291   1.082       .  S
C289        C290   1.390       .  A
C289        C561   1.488       .  S
C290        H292   1.082       .  S
N293        N294   1.320       .  A
N293        C297   1.345       .  A
N293       Cu301   2.073       .  S
N294        C295   1.342       .  A
N294       Cu300   2.048       .  S
C295        C296   1.379       .  A
C295        H298   1.082       .  S
C296        C297   1.384       .  A
C297        H299   1.081       .  S
Cu300       N303   2.049       .  S
Cu301       N311   2.073       .  S
Cu302       N304   2.092       .  S
Cu302       N310   2.093       .  S
N303        N304   1.322       .  A
N303        C307   1.340       .  A
N304        C305   1.349       .  A
C305        C306   1.387       .  A
C305        H308   1.082       .  S
C306        C307   1.376       .  A
C307        H309   1.082       .  S
N310        N311   1.324       .  A
N310        C314   1.348       .  A
N311        C312   1.344       .  A
C312        C313   1.383       .  A
C312        H315   1.082       .  S
C313        C314   1.388       .  A
C313        C528   1.487       .  S
C314        H316   1.082       .  S
N317        C321   1.347       .  A
N317        C318   1.361       .  A
N317        N338   1.402       .  S
C318        C319   1.380       .  A
C318        C521   1.489   1_455  S
C319        C320   1.375       .  A
C319        H322   1.082       .  S
C320        C321   1.388       .  A
C320        H323   1.082       .  S
C321        C328   1.487       .  S
N324        C328   1.360       .  A
N324        C325   1.359       .  A
N324        N331   1.423       .  S
C325        C326   1.377       .  A
C325        C541   1.494       .  S
C326        C327   1.373       .  A
C326        H329   1.082       .  S
C327        C328   1.390       .  A
C327        H330   1.083       .  S
N331        C335   1.362       .  A
N331        C332   1.364       .  A
C332        C333   1.378       .  A
C332        C648   1.500       .  S
C333        C334   1.374       .  A
C333        H336   1.082       .  S
C334        C335   1.389       .  A
C334        H337   1.083       .  S
C335        C342   1.487       .  S
N338        C342   1.348       .  A
N338        C339   1.358       .  A
C339        C340   1.380       .  A
C339        C611   1.485       .  S
C340        C341   1.375       .  A
C340        H343   1.082   1_554  S
C341        C342   1.387       .  A
C341        H344   1.082   1_554  S
N345        C349   1.354       .  A
N345        C346   1.364       .  A
N345        C363   1.448       .  S
C346        C347   1.378       .  A
C346        C531   1.484       .  S
C347        C348   1.363       .  A
C347        H350   1.082       .  S
C348        C349   1.386       .  A
C348        H351   1.082       .  S
C349        C356   1.455       .  S
N352        C356   1.346       .  A
N352        C353   1.361       .  A
N352        C370   1.447       .  S
C353        C354   1.381       .  A
C353        C631   1.485       .  S
C354        C355   1.370       .  A
C354        H357   1.082       .  S
C355        C356   1.385       .  A
C355        H358   1.082       .  S
N359        C363   1.377       .  A
N359        C360   1.378       .  A
N359        N366   1.432       .  S
C360        C361   1.380       .  A
C360        C508   1.491       .  S
C361        C362   1.360       .  A
C361        H364   1.083       .  S
C362        C363   1.380       .  A
C362        H365   1.081       .  S
N366        C370   1.364       .  A
N366        C367   1.363       .  A
C367        C368   1.390       .  A
C367        C591   1.511       .  S
C368        C369   1.365       .  A
C368        H371   1.081       .  S
C369        C370   1.379       .  A
C369        H372   1.079       .  S
N373        N374   1.322       .  A
N373        C377   1.350       .  A
N373       Cu381   2.098       .  S
N374        C375   1.344       .  A
N374       Cu380   2.067       .  S
C375        C376   1.379       .  A
C375        H378   1.082       .  S
C376        C377   1.387       .  A
C376        C434   1.472       .  S
C377        H379   1.082       .  S
Cu380       N383   2.066       .  S
Cu381       N391   2.099       .  S
Cu382       N384   2.088   1_554  S
Cu382       N390   2.088       .  S
N383        N384   1.323   1_554  A
N383        C387   1.346   1_554  A
N384        C385   1.346       .  A
C385        C386   1.385       .  A
C385        H388   1.082       .  S
C386        C387   1.380       .  A
C386        C410   1.470       .  S
C387        H389   1.082       .  S
N390        N391   1.325       .  A
N390        C394   1.349       .  A
N391        C392   1.348       .  A
C392        C393   1.387       .  A
C392        H395   1.082       .  S
C393        C394   1.386       .  A
C393        C518   1.490       .  S
C394        H396   1.082       .  S
N397        N398   1.327       .  A
N397        C401   1.352       .  A
N397       Cu405   2.115       .  S
N398        C399   1.348       .  A
N398       Cu404   2.092       .  S
C399        C400   1.381       .  A
C399        H402   1.081       .  S
C400        C401   1.387       .  A
C400        C448   1.479       .  S
C401        H403   1.081       .  S
Cu404       N407   2.090   1_545  S
Cu405       N415   2.113       .  S
Cu406       N408   2.054   1_545  S
Cu406       N414   2.054       .  S
N407        N408   1.321       .  A
N407        C411   1.350       .  A
N408        C409   1.342       .  A
C409        C410   1.378       .  A
C409        H412   1.082       .  S
C410        C411   1.389       .  A
C411        H413   1.082       .  S
N414        N415   1.320       .  A
N414        C418   1.342       .  A
N415        C416   1.352       .  A
C416        C417   1.398       .  A
C416        H419   1.081       .  S
C417        C418   1.383       .  A
C417        C498   1.498       .  S
C418        H420   1.082       .  S
N421        N422   1.322       .  A
N421        C425   1.348       .  A
N421       Cu429   2.085       .  S
N422        C423   1.348       .  A
N422       Cu428   2.086       .  S
C423        C424   1.386       .  A
C423        H426   1.082       .  S
C424        C425   1.385       .  A
C424        C458   1.479       .  S
C425        H427   1.082       .  S
Cu428       N431   2.086       .  S
Cu429       N439   2.087       .  S
Cu430       N432   2.094       .  S
Cu430       N438   2.092       .  S
N431        N432   1.325       .  A
N431        C435   1.346       .  A
N432        C433   1.350       .  A
C433        C434   1.384       .  A
C433        H436   1.082       .  S
C434        C435   1.381       .  A
C435        H437   1.082       .  S
N438        N439   1.321       .  A
N438        C442   1.350       .  A
N439        C440   1.343       .  A
C440        C441   1.391       .  A
C440        H443   1.081       .  S
C441        C442   1.394       .  A
C441        C571   1.505       .  S
C442        H444   1.079       .  S
N445        N446   1.323       .  A
N445        C449   1.352       .  A
N445       Cu453   2.109       .  S
N446        C447   1.347       .  A
N446       Cu452   2.081       .  S
C447        C448   1.382       .  A
C447        H450   1.082       .  S
C448        C449   1.389       .  A
C449        H451   1.082       .  S
Cu452       N455   2.080       .  S
Cu453       N463   2.110       .  S
Cu454       N456   2.099       .  S
Cu454       N462   2.100       .  S
N455        N456   1.324       .  A
N455        C459   1.347   1_545  A
N456        C457   1.350       .  A
C457        C458   1.387   1_545  A
C457        H460   1.082       .  S
C458        C459   1.383       .  A
C459        H461   1.082       .  S
N462        N463   1.326       .  A
N462        C466   1.353       .  A
N463        C464   1.349       .  A
C464        C465   1.388       .  A
C464        H467   1.083       .  S
C465        C466   1.387       .  A
C465        C511   1.494       .  S
C466        H468   1.082       .  S
N469        C473   1.350       .  A
N469        C470   1.366       .  A
N469        N490   1.428       .  S
C470        C471   1.384       .  A
C470        C501   1.508       .  S
C471        C472   1.370       .  A
C471        H474   1.082       .  S
C472        C473   1.382       .  A
C472        H475   1.083   1_556  S
C473        C480   1.467   1_455  S
N476        C480   1.335       .  A
N476        C477   1.352       .  A
N476        C487   1.421   1_655  S
C477        C478   1.380       .  A
C477        C551   1.476       .  S
C478        C479   1.377       .  A
C478        H481   1.082       .  S
C479        C480   1.388       .  A
C479        H482   1.082       .  S
N483        C487   1.355       .  A
N483        C484   1.374       .  A
N483        C494   1.460       .  S
C484        C485   1.382       .  A
C484        C641   1.488       .  S
C485        C486   1.364       .  A
C485        H488   1.083   1_556  S
C486        C487   1.377       .  A
C486        H489   1.081   1_556  S
N490        C494   1.380       .  A
N490        C491   1.361       .  A
C491        C492   1.377       .  A
C491        C578   1.490       .  S
C492        C493   1.369       .  A
C492        H495   1.082       .  S
C493        C494   1.385       .  A
C493        H496   1.089       .  S
C497        C498   1.414   1_455  A
C497        C502   1.413       .  A
C497       Br504   1.932       .  S
C498        C499   1.413       .  A
C499        C500   1.413       .  A
C499       Br506   1.935       .  S
C500        C501   1.421   1_655  A
C500       Br505   1.927       .  S
C501        C502   1.417       .  A
C502       Br503   1.931       .  S
C507        C508   1.414       .  A
C507        C512   1.417       .  A
C507       Br514   1.929       .  S
C508        C509   1.416       .  A
C509        C510   1.411       .  A
C509       Br516   1.928       .  S
C510        C511   1.407       .  A
C510       Br515   1.930       .  S
C511        C512   1.411       .  A
C512       Br513   1.927       .  S
C517        C518   1.411       .  A
C517        C522   1.412       .  A
C517       Br524   1.932       .  S
C518        C519   1.412       .  A
C519        C520   1.413       .  A
C519       Br526   1.929       .  S
C520        C521   1.412       .  A
C520       Br525   1.931   1_655  S
C521        C522   1.413       .  A
C522       Br523   1.925       .  S
C527        C528   1.413       .  A
C527        C532   1.411       .  A
C527       Br534   1.930       .  S
C528        C529   1.415       .  A
C529        C530   1.406       .  A
C529       Br536   1.933       .  S
C530        C531   1.410       .  A
C530       Br535   1.935       .  S
C531        C532   1.410       .  A
C532       Br533   1.929       .  S
C537        C538   1.409       .  A
C537        C542   1.406   1_655  A
C537       Br544   1.936       .  S
C538        C539   1.410   1_655  A
C539        C540   1.411       .  A
C539       Br546   1.930       .  S
C540        C541   1.414       .  A
C540       Br545   1.930       .  S
C541        C542   1.418       .  A
C542       Br543   1.930   1_455  S
C547        C548   1.410   1_554  A
C547        C552   1.407       .  A
C547       Br554   1.930       .  S
C548        C549   1.412       .  A
C549        C550   1.405       .  A
C549       Br556   1.932       .  S
C550        C551   1.407       .  A
C550       Br555   1.929       .  S
C551        C552   1.409   1_556  A
C552       Br553   1.931       .  S
C557        C558   1.409       .  A
C557        C562   1.409       .  A
C557       Br564   1.931       .  S
C558        C559   1.407       .  A
C559        C560   1.410       .  A
C559       Br566   1.928       .  S
C560        C561   1.416       .  A
C560       Br565   1.931       .  S
C561        C562   1.415       .  A
C562       Br563   1.931       .  S
C567        C568   1.417       .  A
C567        C572   1.406       .  A
C567       Br574   1.932       .  S
C568        C569   1.414       .  A
C569        C570   1.417       .  A
C569       Br576   1.929       .  S
C570        C571   1.421       .  A
C570       Br575   1.930       .  S
C571        C572   1.413       .  A
C572       Br573   1.934       .  S
C577        C578   1.416       .  A
C577        C582   1.407       .  A
C577       Br584   1.927       .  S
C578        C579   1.411       .  A
C579        C580   1.410       .  A
C579       Br586   1.929       .  S
C580        C581   1.409       .  A
C580       Br585   1.927       .  S
C581        C582   1.408       .  A
C582       Br583   1.934       .  S
C587        C588   1.408       .  A
C587        C592   1.411       .  A
C587       Br594   1.935       .  S
C588        C589   1.412       .  A
C589        C590   1.411       .  A
C589       Br596   1.931       .  S
C590        C591   1.419       .  A
C590       Br595   1.934       .  S
C591        C592   1.425       .  A
C592       Br593   1.927       .  S
C597        C598   1.411       .  A
C597        C602   1.410       .  A
C597       Br604   1.929       .  S
C598        C599   1.408       .  A
C599        C600   1.408       .  A
C599       Br606   1.929       .  S
C600        C601   1.411       .  A
C600       Br605   1.930       .  S
C601        C602   1.409       .  A
C602       Br603   1.928       .  S
C607        C608   1.418       .  A
C607        C612   1.411       .  A
C607       Br614   1.935       .  S
C608        C609   1.418       .  A
C609        C610   1.411       .  A
C609       Br616   1.931       .  S
C610        C611   1.408       .  A
C610       Br615   1.932       .  S
C611        C612   1.411       .  A
C612       Br613   1.927       .  S
C617        C618   1.411       .  A
C617        C622   1.414       .  A
C617       Br624   1.932       .  S
C618        C619   1.411       .  A
C619        C620   1.412       .  A
C619       Br626   1.929       .  S
C620        C621   1.413       .  A
C620       Br625   1.930       .  S
C621        C622   1.420       .  A
C622       Br623   1.931       .  S
C627        C628   1.412       .  A
C627        C632   1.408       .  A
C627       Br634   1.929       .  S
C628        C629   1.412       .  A
C629        C630   1.410       .  A
C629       Br636   1.932       .  S
C630        C631   1.415       .  A
C630       Br635   1.932       .  S
C631        C632   1.406       .  A
C632       Br633   1.930       .  S
C637        C638   1.409       .  A
C637        C642   1.409       .  A
C637       Br644   1.931       .  S
C638        C639   1.409       .  A
C639        C640   1.412       .  A
C639       Br646   1.929       .  S
C640        C641   1.411       .  A
C640       Br645   1.924       .  S
C641        C642   1.413       .  A
C642       Br643   1.931       .  S
C647        C648   1.414       .  A
C647        C652   1.415       .  A
C647       Br654   1.932       .  S
C648        C649   1.416       .  A
C649        C650   1.412       .  A
C649       Br656   1.931       .  S
C650        C651   1.413       .  A
C650       Br655   1.933       .  S
C651        C652   1.416       .  A
C652       Br653   1.930       .  S
