geometry optimzed in LAMMPS
_audit_creation_date              2020-11-30 
_audit_creation_method            'lammps2cif' 
_symmetry_space_group_name_H-M    'P1' 
_symmetry_Int_Tables_number       1 
_symmetry_cell_setting            triclinic 
loop_ 
_symmetry_equiv_pos_as_xyz 
  x,y,z 
_cell_length_a                    23.5934919 
_cell_length_b                    23.24911767034344 
_cell_length_c                    24.597905536844177 
_cell_angle_alpha                 89.99466717676289 
_cell_angle_beta                  89.99963371835399 
_cell_angle_gamma                 89.09516887144345 
loop_ 
_atom_site_label 
_atom_site_type_symbol 
_atom_site_fract_x 
_atom_site_fract_y 
_atom_site_fract_z 
_atom_site_charge 
O1          O  0.46528825  0.85809276  0.53642164    -0.74200
O2          O  0.46099984  0.72958525  0.43910921    -0.74300
O3          O  0.47231235  0.73966721  0.54560985    -0.74300
O4          O  0.45391644  0.84792897  0.43001774    -0.74400
O5          O  0.54809624  0.85079642  0.42080554    -0.74300
O6          O  0.56645819  0.74252431  0.53626034    -0.74300
O7          O  0.55511160  0.73289728  0.42984295    -0.74200
O8          O  0.55940764  0.86096232  0.52722791    -0.74300
Ni9        Ni  0.45972350  0.79358240  0.48814940     1.25400
Ni10       Ni  0.56066218  0.79685011  0.47819727     1.25400
C11         C  0.51258325  0.88305375  0.54414112     0.88000
C12         C  0.50782801  0.70824913  0.42147624     0.87900
C13         C  0.52205860  0.72058214  0.55697070     0.87900
C14         C  0.49841664  0.87057899  0.41026499     0.88100
O15         O  0.87259292  0.47974217  0.58300232    -0.74200
O16         O  0.03113013  0.51052915  0.57323048    -0.74300
O17         O  0.93657841  0.57574837  0.57676448    -0.74300
O18         O  0.96894543  0.41321202  0.57952306    -0.74400
O19         O  0.96427718  0.41119493  0.48888023    -0.74300
O20         O  0.93017806  0.57278062  0.48618492    -0.74300
O21         O  0.02496205  0.50873195  0.48255822    -0.74200
O22         O  0.86805192  0.47600367  0.49235730    -0.74300
Ni23       Ni  0.95229188  0.49465331  0.58151878     1.25400
Ni24       Ni  0.94645268  0.49184081  0.48434572     1.25400
C25         C  0.84429515  0.47454688  0.53895653     0.88000
C26         C  0.05343414  0.51564926  0.52612432     0.87900
C27         C  0.93091295  0.60102508  0.53080050     0.87900
C28         C  0.97268178  0.38579843  0.53440916     0.88100
O29         O  0.66450858  0.56383895  0.04073206    -0.74200
O30         O  0.78127635  0.56973729  0.93240543    -0.74300
O31         O  0.66609776  0.55996393  0.93100739    -0.74300
O32         O  0.78020772  0.57374258  0.04056130    -0.74400
O33         O  0.78966183  0.47802764  0.04369062    -0.74300
O34         O  0.67523389  0.46424570  0.93408776    -0.74300
O35         O  0.79060044  0.47403523  0.93535425    -0.74200
O36         O  0.67373328  0.46818788  0.04393339    -0.74300
Ni37       Ni  0.72248854  0.57019757  0.98612130     1.25400
Ni38       Ni  0.73245049  0.46763080  0.98944748     1.25400
C39         C  0.64913127  0.51499892  0.05924460     0.88000
C40         C  0.80663595  0.52311762  0.91809791     0.87900
C41         C  0.65152556  0.50992002  0.91513263     0.87900
C42         C  0.80568646  0.52827179  0.05761071     0.88100
O43         O  0.11179108  0.64526455  0.05027417    -0.74200
O44         O  0.12128106  0.76617593  0.94417841    -0.74300
O45         O  0.12210502  0.76439076  0.05201083    -0.74300
O46         O  0.11057665  0.64692797  0.94240699    -0.74400
O47         O  0.01634170  0.65790310  0.94302542    -0.74300
O48         O  0.02774871  0.77176359  0.05338344    -0.74300
O49         O  0.02701095  0.77502495  0.94574415    -0.74200
O50         O  0.01740048  0.65461728  0.05031514    -0.74300
Ni51       Ni  0.12002646  0.70535610  0.99718378     1.25400
Ni52       Ni  0.01891515  0.71531621  0.99816026     1.25400
C53         C  0.06268565  0.62738882  0.06390732     0.88000
C54         C  0.07544807  0.79273916  0.93067265     0.87900
C55         C  0.07632014  0.78969420  0.06762702     0.87900
C56         C  0.06105641  0.63045343  0.92830710     0.88100
O57         O  0.80859482  0.99078511  0.05448015    -0.74200
O58         O  0.68513229  0.09910172  0.05755818    -0.74300
O59         O  0.69185228  0.98292531  0.05856144    -0.74300
O60         O  0.80107020  0.10478638  0.05327234    -0.74400
O61         O  0.79739473  0.10345611  0.96256212    -0.74300
O62         O  0.68875507  0.98178190  0.96793364    -0.74300
O63         O  0.68197155  0.09760819  0.96678358    -0.74200
O64         O  0.80519733  0.98965717  0.96369379    -0.74300
Ni65       Ni  0.74659298  0.04430370  0.05928642     1.25400
Ni66       Ni  0.74300152  0.04294811  0.96205071     1.25400
C67         C  0.82934277  0.97599177  0.00846331     0.88000
C68         C  0.66296403  0.11538308  0.01254408     0.87900
C69         C  0.67099610  0.96358832  0.01403987     0.87900
C70         C  0.81897083  0.12187470  0.00689457     0.88100
O71         O  0.78658550  0.68526712  0.87288045    -0.80700
O72         O  0.79568914  0.75312146  0.63546004    -0.65400
O73         O  0.80766929  0.75996104  0.78962382    -1.12000
C74         C  0.61178204  0.78218563  0.78436041     1.06200
O75         O  0.71861683  0.80839043  0.62220305    -0.78600
O76         O  0.73041435  0.86950725  0.71835515    -0.66200
Ni77       Ni  0.84894204  0.69891313  0.82539470     1.34900
C78         C  0.72813507  0.88381735  0.76812507     0.84900
O79         O  0.88443720  0.76022072  0.70603140    -0.79100
O80         O  0.91515027  0.70996766  0.77945326    -0.89400
C81         C  0.75764399  0.77483738  0.60491194     0.84500
O82         O  0.82265709  0.63495078  0.78466935    -0.67600
O83         O  0.62611311  0.82219862  0.75205378    -0.86900
C84         C  0.81337284  0.62999300  0.73442010     0.85300
C85         C  0.92405776  0.74047747  0.73699789     1.06900
H86         H  0.70737104  0.71656102  0.71504763     0.38700
O87         O  0.72231504  0.75364230  0.72464880    -1.09500
O88         O  0.72425143  0.84522205  0.80502329    -0.66200
Ni89       Ni  0.72810956  0.76051276  0.80275780     1.26300
O90         O  0.80702549  0.67323246  0.70351518    -0.66400
O91         O  0.64867091  0.75513388  0.81215944    -0.78700
C92         C  0.76740183  0.72563249  0.90207573     0.84700
O93         O  0.73773509  0.76480987  0.87996006    -0.65900
Ni94       Ni  0.67808458  0.81393915  0.69051814     1.27400
Ni95       Ni  0.80309731  0.75607166  0.71251159     1.26100
H96         H  0.82353614  0.79638244  0.80019986     0.39300
O97         O  0.23416131  0.60561527  0.77040947    -0.80700
O98         O  0.23510192  0.86505005  0.70158915    -0.65400
O99         O  0.27546114  0.71018490  0.73027505    -1.12000
C100        C  0.32441753  0.77648806  0.90685881     1.06200
O101        O  0.29806992  0.91054435  0.75218134    -0.78600
O102        O  0.38284710  0.82591516  0.77938789    -0.66200
Ni103      Ni  0.22363698  0.65165701  0.70484268     1.34900
C104        C  0.39794241  0.77305582  0.78382325     0.84900
O105        O  0.25166065  0.77535982  0.63617679    -0.79100
O106        O  0.21089665  0.68910719  0.63501985    -0.89400
C107        C  0.25510822  0.91085679  0.72072246     0.84500
O108        O  0.15240091  0.68566961  0.73043767    -0.67600
O109        O  0.33635051  0.82127626  0.87973389    -0.86900
C110        C  0.13978951  0.73913874  0.72740528     0.85300
C111        C  0.22491955  0.73586968  0.61162373     1.06900
H112        H  0.22710519  0.80843958  0.80712626     0.38700
O113        O  0.26385363  0.79987093  0.79147422    -1.09500
O114        O  0.36367503  0.73364208  0.79699372    -0.66200
Ni115      Ni  0.28448452  0.72177796  0.80801622     1.26300
O116        O  0.17737562  0.77704683  0.72056177    -0.66400
O117        O  0.29559996  0.73536281  0.88638498    -0.78700
C118        C  0.28077196  0.59939442  0.79638421     0.84700
O119        O  0.30526053  0.64248284  0.81758201    -0.65900
Ni120      Ni  0.31590772  0.85963773  0.81326385     1.27400
Ni121      Ni  0.25703986  0.78776385  0.71382977     1.26100
H122        H  0.31200251  0.70138393  0.71428688     0.39300
O123        O  0.70634991  0.27642661  0.88015494    -0.80700
O124        O  0.74953448  0.18798542  0.62901502    -0.65400
O125        O  0.76232923  0.22858578  0.78384802    -1.12000
C126        C  0.80086813  0.41549917  0.71108920     1.06200
O127        O  0.82865565  0.23438351  0.61560871    -0.78600
O128        O  0.88780604  0.30030252  0.68837334    -0.66200
Ni129      Ni  0.70582646  0.20540868  0.83647237     1.34900
C130        C  0.89499630  0.30307783  0.73970003     0.84900
O131        O  0.74690835  0.12408771  0.72445408    -0.79100
O132        O  0.70248671  0.12950964  0.80526228    -0.89400
C133        C  0.79009105  0.20217144  0.59706965     0.84500
O134        O  0.63926963  0.22799077  0.79396347    -0.67600
O135        O  0.81285312  0.38811437  0.66774504    -0.86900
C136        C  0.63111005  0.21821165  0.74328142     0.85300
C137        C  0.72058156  0.10103503  0.76434657     1.06900
H138        H  0.72623597  0.30302132  0.68329638     0.38700
O139        O  0.76203415  0.28741445  0.69610602    -1.09500
O140        O  0.85327795  0.30290034  0.77292839    -0.66200
Ni141      Ni  0.77089476  0.31004625  0.77071535     1.26300
O142        O  0.67185146  0.21189494  0.70911211    -0.66400
O143        O  0.78027488  0.39189267  0.75394947    -0.78700
C144        C  0.74854386  0.30925090  0.88798911     0.84700
O145        O  0.77784895  0.32684119  0.84753795    -0.65900
Ni146      Ni  0.81896842  0.30993910  0.64503681     1.27400
Ni147      Ni  0.75399193  0.20587199  0.70824613     1.26100
H148        H  0.79818563  0.21301897  0.79643505     0.39300
O149        O  0.37703356  0.17299003  0.72742215    -0.80700
O150        O  0.13150878  0.25467567  0.72726778    -0.65400
O151        O  0.29439059  0.25138353  0.70568108    -1.12000
C152        C  0.29975399  0.27600246  0.89740213     1.06200
O153        O  0.15079068  0.33209784  0.77284210    -0.78600
O154        O  0.24334264  0.37789729  0.81538296    -0.66200
Ni155      Ni  0.33054607  0.19147681  0.66608192     1.34900
C156        C  0.29109920  0.38307621  0.79264387     0.84900
O157        O  0.20215303  0.24877706  0.63738824    -0.79100
O158        O  0.28415129  0.20969728  0.60392792    -0.89400
C159        C  0.11381191  0.29815344  0.75417193     0.84500
O160        O  0.28494515  0.12776433  0.68432805    -0.67600
O161        O  0.24818358  0.29431879  0.89453601    -0.86900
C162        C  0.23568896  0.12369710  0.70382423     0.85300
C163        C  0.23593985  0.23512339  0.59834984     1.06900
H164        H  0.22568347  0.21735768  0.80735513     0.38700
O165        O  0.23423672  0.25375262  0.79048207    -1.09500
O166        O  0.32003344  0.34001218  0.77515583    -0.66200
Ni167      Ni  0.31467092  0.25683491  0.78070199     1.26300
O168        O  0.20570525  0.16722279  0.71809278    -0.66400
O169        O  0.32976355  0.26155232  0.85630496    -0.78700
C170        C  0.41405397  0.20862600  0.74228335     0.84700
O171        O  0.39653820  0.25382906  0.76650866    -0.65900
Ni172      Ni  0.19905395  0.31220814  0.83306157     1.27400
Ni173      Ni  0.21399959  0.25015244  0.71446504     1.26100
H174        H  0.30377960  0.28705674  0.68790303     0.39300
O175        O  0.71912019  0.80774959  0.38313100    -0.80700
O176        O  0.73637331  0.76273305  0.12619037    -0.65400
O177        O  0.72186603  0.75049102  0.28162494    -1.12000
C178        C  0.92208728  0.73933731  0.27002066     1.06200
O179        O  0.78792687  0.68471859  0.13053880    -0.78600
O180        O  0.81247098  0.63609719  0.21972411    -0.66200
Ni181      Ni  0.67708402  0.81130631  0.31543970     1.34900
C182        C  0.81345524  0.62843878  0.27016056     0.84900
O183        O  0.64790055  0.75095407  0.19492724    -0.79100
O184        O  0.62350063  0.81762797  0.25511530    -0.89400
C185        C  0.76744541  0.72549411  0.10292094     0.84500
O186        O  0.72512817  0.87086602  0.28621489    -0.67600
O187        O  0.91234219  0.70471215  0.23061723    -0.86900
C188        C  0.72632880  0.88161047  0.23546636     0.85300
C189        C  0.61039800  0.77736871  0.22259456     1.06900
H190        H  0.82237914  0.79477903  0.20528538     0.38700
O191        O  0.80677716  0.75829668  0.21622029    -1.09500
O192        O  0.81190620  0.67075219  0.30280983    -0.66200
Ni193      Ni  0.80237818  0.75412072  0.29367260     1.26300
O194        O  0.72305556  0.84105005  0.20067762    -0.66400
O195        O  0.88295393  0.76169344  0.29976846    -0.78700
C196        C  0.75651219  0.77239471  0.40076281     0.84700
O197        O  0.79451125  0.75010590  0.37057838    -0.65900
Ni198      Ni  0.84770451  0.69670315  0.18134442     1.27400
Ni199      Ni  0.72726582  0.75719708  0.20358682     1.26100
H200        H  0.70748549  0.71320928  0.29161223     0.39300
O201        O  0.30199572  0.90700048  0.27220951    -0.80700
O202        O  0.30197293  0.64601842  0.20037311    -0.65400
O203        O  0.26175966  0.80211435  0.22822358    -1.12000
C204        C  0.21808217  0.73831930  0.40638191     1.06200
O205        O  0.23690853  0.60298471  0.25145470    -0.78600
O206        O  0.15138527  0.68689036  0.28143682    -0.66200
Ni207      Ni  0.31517939  0.86108176  0.20743779     1.34900
C208        C  0.13743526  0.74009892  0.28534420     0.84900
O209        O  0.29234746  0.73817712  0.13320467    -0.79100
O210        O  0.33168321  0.82500312  0.13897544    -0.89400
C211        C  0.28094358  0.60102956  0.22090627     0.84500
O212        O  0.38364517  0.82547214  0.23663551    -0.67600
O213        O  0.20200278  0.69316144  0.38146959    -0.86900
C214        C  0.39660044  0.77225516  0.23185257     0.85300
C215        C  0.32059518  0.77953424  0.11244876     1.06900
H216        H  0.30880475  0.70332860  0.30524190     0.38700
O217        O  0.27231617  0.71212011  0.28909524    -1.09500
O218        O  0.17346311  0.77852646  0.29665683    -0.66200
Ni219      Ni  0.25316573  0.78985263  0.30548947     1.26300
O220        O  0.36008009  0.73427508  0.22167053    -0.66400
O221        O  0.24664145  0.77717425  0.38296189    -0.78700
C222        C  0.25499784  0.91160141  0.29731895     0.84700
O223        O  0.23098388  0.86775093  0.31649901    -0.65900
Ni224      Ni  0.22009273  0.65362836  0.31350004     1.27400
Ni225      Ni  0.28113766  0.72426622  0.21137407     1.26100
H226        H  0.22543680  0.81146559  0.21199421     0.39300
O227        O  0.83942991  0.23035816  0.36932547    -0.80700
O228        O  0.78705054  0.32402011  0.13929508    -0.65400
O229        O  0.77161666  0.28517787  0.29130707    -1.12000
C230        C  0.72389795  0.10060870  0.22412916     1.06200
O231        O  0.71234596  0.27688259  0.10875174    -0.78600
O232        O  0.64665516  0.23258199  0.19643809    -0.66200
Ni233      Ni  0.82864802  0.30711877  0.34261564     1.34900
C234        C  0.63843612  0.21943997  0.24628537     0.84900
O235        O  0.79380941  0.38854749  0.23373328    -0.79100
O236        O  0.82132004  0.38632028  0.32174881    -0.89400
C237        C  0.75506299  0.30854739  0.09976660     0.84500
O238        O  0.89686568  0.29923078  0.29882992    -0.67600
O239        O  0.70483348  0.13092753  0.18470332    -0.86900
C240        C  0.90415694  0.29852662  0.24754474     0.85300
C241        C  0.81155374  0.41303140  0.27744441     1.06900
H242        H  0.80414690  0.20955157  0.19003569     0.38700
O243        O  0.76921072  0.22647205  0.20364413    -1.09500
O244        O  0.67932448  0.21048585  0.27992765    -0.66200
Ni245      Ni  0.76181721  0.20370271  0.27949125     1.26300
O246        O  0.86278538  0.29630641  0.21403517    -0.66400
O247        O  0.75323661  0.12175187  0.26309463    -0.78700
C248        C  0.80031751  0.20037761  0.38997073     0.84700
O249        O  0.75871714  0.18640979  0.35909704    -0.65900
Ni250      Ni  0.71042102  0.20617910  0.15262173     1.27400
Ni251      Ni  0.78088326  0.30734651  0.21664971     1.26100
H252        H  0.73609332  0.30145068  0.30389387     0.39300
O253        O  0.85688634  0.01779743  0.44015194    -0.74200
O254        O  0.74419947  0.99153222  0.54869972    -0.74300
O255        O  0.85853005  0.00905817  0.54920714    -0.74300
O256        O  0.74264607  0.00021663  0.44090105    -0.74400
O257        O  0.75814605  0.90556145  0.43404144    -0.74300
O258        O  0.87434137  0.91435235  0.54266984    -0.74300
O259        O  0.75931867  0.89678112  0.54212582    -0.74200
O260        O  0.87269575  0.92311583  0.43333414    -0.74300
Ni261      Ni  0.80016095  0.00799110  0.49503643     1.25400
Ni262      Ni  0.81684014  0.90647656  0.48783647     1.25400
C263        C  0.88407059  0.97488746  0.41981592     0.88000
C264        C  0.73124772  0.93993035  0.56086054     0.87900
C265        C  0.88645766  0.96359538  0.56253063     0.87900
C266        C  0.72981544  0.95104654  0.42164604     0.88100
C267        C  0.22394917  0.96718106  0.30118037     0.80400
N268        N  0.24931158  0.01894900  0.29367454    -0.77900
C269        C  0.21716210  0.06850218  0.29330716     0.82900
N270        N  0.16005469  0.06572280  0.30042829    -0.77800
C271        C  0.13495584  0.01431000  0.30797586     0.83000
N272        N  0.16695735  0.96556483  0.30866709    -0.79500
O273        O  0.15841577  0.33370651  0.22805482    -0.80700
O274        O  0.40285655  0.25830130  0.22760146    -0.65400
O275        O  0.24073486  0.25719908  0.20617518    -1.12000
C276        C  0.24430237  0.23595564  0.39779881     1.06200
O277        O  0.38341364  0.17682540  0.26585592    -0.78600
O278        O  0.29276023  0.12989361  0.31324740    -0.66200
Ni279      Ni  0.20432219  0.31654966  0.16593290     1.34900
C280        C  0.24367048  0.12560116  0.29319544     0.84900
O281        O  0.33420046  0.26744755  0.13946469    -0.79100
O282        O  0.25160473  0.30022432  0.10302268    -0.89400
C283        C  0.42049508  0.21221514  0.24994381     0.84500
O284        O  0.24871766  0.38171664  0.18444546    -0.67600
O285        O  0.29378336  0.21297978  0.39225978    -0.86900
C286        C  0.29672428  0.38667721  0.20666514     0.85300
C287        C  0.30298908  0.28171425  0.09906974     1.06900
H288        H  0.31051173  0.28969476  0.30852376     0.38700
O289        O  0.30164129  0.25410185  0.29035093    -1.09500
O290        O  0.21465168  0.16883242  0.27681411    -0.66200
Ni291      Ni  0.22142166  0.25144114  0.28206813     1.26300
O292        O  0.32638885  0.34361599  0.22250419    -0.66400
O293        O  0.20988734  0.24767217  0.35883515    -0.78700
C294        C  0.12148942  0.29820269  0.24347419     0.84700
O295        O  0.13909163  0.25423881  0.26954184    -0.65900
Ni296      Ni  0.33882876  0.19451504  0.32895721     1.27400
Ni297      Ni  0.32092220  0.26096047  0.21512796     1.26100
H298        H  0.23232399  0.22124167  0.18848219     0.39300
C299        C  0.96148275  0.31058620  0.22417495     0.80400
N300        N  0.96217894  0.35060416  0.18351237    -0.77900
C301        C  0.01175297  0.36936643  0.16300023     0.82900
N302        N  0.06054464  0.34872763  0.18314609    -0.77800
C303        C  0.06255950  0.30984256  0.22381880     0.83000
N304        N  0.01242022  0.29085476  0.24598723    -0.79500
C305        C  0.32824978  0.27041261  0.95023423     0.80400
N306        N  0.30102775  0.28150377  0.99813392    -0.77900
C307        C  0.32977756  0.27442609  0.04581088     0.82900
N308        N  0.38471866  0.25641756  0.04515019    -0.77800
C309        C  0.41157416  0.24559435  0.99794702     0.83000
N310        N  0.38338936  0.25227069  0.95058019    -0.79500
C311        C  0.58116065  0.20127648  0.26547595     0.80400
N312        N  0.58187178  0.15490620  0.29961708    -0.77900
C313        C  0.53312971  0.13054062  0.31567909     0.82900
N314        N  0.48385927  0.15163370  0.29771583    -0.77800
C315        C  0.48030972  0.19710564  0.26402493     0.83000
N316        N  0.52959664  0.22251996  0.24627832    -0.79500
C317        C  0.70798253  0.93963019  0.21678802     0.80400
N318        N  0.73327111  0.99095610  0.23041062    -0.77900
C319        C  0.70147790  0.04107204  0.22517619     0.82900
N320        N  0.64453515  0.03729427  0.21774248    -0.77800
C321        C  0.61993995  0.98534136  0.21535496     0.83000
N322        N  0.65301426  0.94032051  0.20103932    -0.79500
C323        C  0.77116922  0.32319037  0.94440974     0.80400
N324        N  0.74420020  0.31461647  0.99417534    -0.77900
C325        C  0.77406167  0.32364015  0.04235357     0.82900
N326        N  0.83002700  0.33522322  0.03896296    -0.77800
C327        C  0.85762825  0.33725020  0.99105138     0.83000
N328        N  0.82745870  0.33406044  0.94466130    -0.79500
C329        C  0.83711434  0.57223713  0.28680624     0.80400
N330        N  0.89373947  0.57041145  0.27827677    -0.77900
C331        C  0.92014149  0.52218149  0.26080042     0.82900
N332        N  0.89218413  0.47213009  0.26329398    -0.77800
C333        C  0.83617616  0.47104221  0.27497274     0.83000
N334        N  0.80709622  0.52198419  0.28342579    -0.79500
C335        C  0.80520000  0.17262832  0.54391452     0.80400
N336        N  0.85947758  0.15300592  0.54549051    -0.77900
C337        C  0.89236229  0.15014864  0.50089602     0.82900
N338        N  0.86851575  0.15949303  0.45175087    -0.77800
C339        C  0.81323381  0.17558066  0.44602055     0.83000
N340        N  0.78224652  0.18690983  0.49325792    -0.79500
C341        C  0.31246408  0.54616541  0.21027540     0.80400
N342        N  0.36818291  0.54970103  0.19615939    -0.77900
C343        C  0.40069657  0.50169672  0.18914623     0.82900
N344        N  0.37732458  0.44934775  0.19567136    -0.77800
C345        C  0.32168824  0.44449333  0.20901583     0.83000
N346        N  0.28891873  0.49315202  0.21625285    -0.79500
C347        C  0.97871947  0.76534335  0.27350227     0.80400
N348        N  0.97956539  0.82234704  0.26133797    -0.77900
C349        C  0.02881869  0.85051267  0.25732738     0.82900
N350        N  0.07763736  0.82117820  0.26492085    -0.77800
C351        C  0.07925198  0.76411213  0.27588208     0.83000
N352        N  0.02909786  0.73485633  0.27928612    -0.79500
C353        C  0.35208728  0.77406918  0.96173524     0.80400
N354        N  0.40607529  0.79452791  0.96364366    -0.77900
C355        C  0.43249300  0.80503458  0.01139339     0.82900
N356        N  0.40398630  0.79607494  0.05821902    -0.77800
C357        C  0.34995973  0.77588201  0.05856325     0.83000
N358        N  0.32315003  0.76563662  0.00976235    -0.79500
C359        C  0.55446821  0.75046481  0.22464766     0.80400
N360        N  0.55613855  0.69223793  0.22864124    -0.77900
C361        C  0.50865375  0.66196386  0.23562814     0.82900
N362        N  0.45884010  0.69045661  0.23934568    -0.77800
C363        C  0.45506021  0.74862259  0.23530587     0.83000
N364        N  0.50355164  0.77973865  0.22873105    -0.79500
C365        C  0.19810806  0.74858159  0.55818597     0.80400
N366        N  0.14140655  0.75900241  0.55935296    -0.77900
C367        C  0.11122598  0.76533956  0.51303943     0.82900
N368        N  0.13754535  0.75931375  0.46448634    -0.77800
C369        C  0.19433329  0.74921795  0.46154649     0.83000
N370        N  0.22513299  0.74295954  0.50882983    -0.79500
C371        C  0.79313174  0.73502060  0.95484991     0.80400
N372        N  0.84703687  0.75410595  0.95523130    -0.77900
C373        C  0.87397551  0.76373586  0.00258585     0.82900
N374        N  0.84643192  0.75539990  0.04984919    -0.77800
C375        C  0.79247269  0.73652028  0.05015567     0.83000
N376        N  0.76503420  0.72635056  0.00247754    -0.79500
C377        C  0.22360718  0.26012785  0.54543027     0.80400
N378        N  0.23449622  0.23166338  0.49795394    -0.77900
C379        C  0.22985151  0.26099948  0.45011456     0.82900
N380        N  0.22018511  0.31856129  0.45036168    -0.77800
C381        C  0.21346132  0.34690805  0.49760890     0.83000
N382        N  0.21385873  0.31766858  0.54483824    -0.79500
C383        C  0.95231867  0.31659249  0.76342803     0.80400
N384        N  0.95218425  0.35824269  0.80278253    -0.77900
C385        C  0.00130137  0.37628441  0.82505419     0.82900
N386        N  0.05034726  0.35348571  0.80795185    -0.77800
C387        C  0.05355710  0.31303242  0.76880965     0.83000
N388        N  0.00392871  0.29434345  0.74495341    -0.79500
C389        C  0.22315787  0.96451093  0.70786971     0.80400
N390        N  0.24489068  0.01811209  0.71435450    -0.77900
C391        C  0.21118391  0.06577439  0.70561335     0.82900
N392        N  0.15618194  0.05933261  0.69039930    -0.77800
C393        C  0.13474966  0.00603000  0.68371351     0.83000
N394        N  0.16828756  0.95921408  0.69214854    -0.79500
C395        C  0.57387214  0.20255192  0.72194970     0.80400
N396        N  0.52236245  0.21963090  0.74412057    -0.77900
C397        C  0.47320492  0.19651041  0.72354988     0.82900
N398        N  0.47679125  0.15628882  0.68380577    -0.77800
C399        C  0.52661688  0.13916886  0.66268453     0.83000
N400        N  0.57482456  0.16218190  0.68169947    -0.79500
C401        C  0.31116314  0.54279235  0.79864059     0.80400
N402        N  0.28498888  0.49089592  0.79259169    -0.77900
C403        C  0.31690712  0.44089791  0.79116212     0.82900
N404        N  0.37418259  0.44356293  0.79570177    -0.77800
C405        C  0.39994050  0.49471515  0.80187256     0.83000
N406        N  0.36846857  0.54378567  0.80381242    -0.79500
C407        C  0.70359293  0.94145291  0.77935947     0.80400
N408        N  0.73119398  0.99252978  0.77114445    -0.77900
C409        C  0.69927497  0.04149357  0.76094633     0.82900
N410        N  0.64304898  0.03665478  0.75059482    -0.77800
C411        C  0.61740655  0.98524520  0.75428241     0.83000
N412        N  0.64661502  0.94067834  0.77559237    -0.79500
C413        C  0.98069224  0.76588721  0.73090787     0.80400
N414        N  0.03106558  0.73475386  0.72907753    -0.77900
C415        C  0.08125413  0.76403638  0.73156568     0.82900
N416        N  0.07957424  0.82182950  0.73811824    -0.77800
C417        C  0.03080744  0.85188981  0.74257460     0.83000
N418        N  0.98154658  0.82367352  0.73911309    -0.79500
C419        C  0.55626296  0.75483178  0.77983607     0.80400
N420        N  0.55887960  0.69811100  0.76753138    -0.77900
C421        C  0.51182145  0.66792893  0.75816590     0.82900
N422        N  0.46108908  0.69494975  0.76102329    -0.77800
C423        C  0.45640910  0.75161784  0.77402462     0.83000
N424        N  0.50458928  0.78280772  0.78267476    -0.79500
C425        C  0.82939914  0.57418322  0.71068352     0.80400
N426        N  0.79899593  0.52464601  0.71816154    -0.77900
C427        C  0.82703015  0.47268800  0.71292010     0.82900
N428        N  0.88438904  0.47154379  0.70936770    -0.77800
C429        C  0.91405538  0.52048045  0.71194199     0.83000
N430        N  0.88608478  0.57034149  0.70280298    -0.79500
C431        C  0.75053280  0.74873725  0.55109864     0.80400
N432        N  0.75748531  0.77686042  0.50265931    -0.77900
C433        C  0.74916235  0.74729367  0.45516281     0.82900
N434        N  0.73220184  0.69166836  0.45676517    -0.77800
C435        C  0.72301941  0.66531649  0.50480933     0.83000
N436        N  0.73342784  0.69348318  0.55142302    -0.79500
C437        C  0.68164752  0.94705346  0.38643275    -0.18300
C438        C  0.64261137  0.94822929  0.35490661     0.05800
C439        C  0.60596694  0.95689124  0.31035701     0.07600
C440        C  0.59252103  0.97128597  0.26508606    -0.19100
C441        C  0.93054013  0.98540152  0.38347046    -0.19900
C442        C  0.97341320  0.99480400  0.35838243     0.05800
C443        C  0.02714556  0.00493190  0.33498386     0.07600
C444        C  0.07538079  0.01126087  0.31996197    -0.19100
C445        C  0.58783039  0.96796858  0.70689693    -0.18300
C446        C  0.60134191  0.94744223  0.66387285     0.05800
C447        C  0.64123024  0.93309007  0.62325257     0.07600
C448        C  0.68241251  0.93121907  0.59434774    -0.19100
C449        C  0.07757220  0.99848393  0.66489899    -0.18300
C450        C  0.03101426  0.98905686  0.64684440     0.05800
C451        C  0.97806404  0.97726575  0.62251618     0.07600
C452        C  0.93463995  0.96901449  0.59790179    -0.19100
C453        C  0.48760308  0.83291130  0.01240904    -0.18300
C454        C  0.53205684  0.85909390  0.01380533     0.05800
C455        C  0.58293508  0.89225694  0.01523340     0.07600
C456        C  0.62459166  0.92276683  0.01556165    -0.19100
C457        C  0.46880473  0.22442829  0.99893638    -0.18300
C458        C  0.51596376  0.20460723  0.00333810     0.05800
C459        C  0.56971854  0.17839668  0.00953707     0.07600
C460        C  0.61390954  0.15219316  0.01290797    -0.19100
C461        C  0.92049636  0.80154215  0.00250628    -0.18300
C462        C  0.93608982  0.85015518  0.00337098     0.05800
C463        C  0.91750250  0.90721899  0.00524397     0.07600
C464        C  0.88091983  0.94341296  0.00694337    -0.19100
C465        C  0.86484832  0.16193913  0.00418387    -0.18300
C466        C  0.89903546  0.19981383  0.99992234     0.05800
C467        C  0.92180099  0.25526137  0.99397511     0.07600
C468        C  0.90995885  0.30563958  0.99049048    -0.19100
C469        C  0.05398332  0.57586394  0.90204136    -0.18300
C470        C  0.04093349  0.52759831  0.88954623     0.05800
C471        C  0.02110136  0.47203902  0.87652739     0.07600
C472        C  0.00519256  0.42683554  0.85821206    -0.19100
C473        C  0.05716552  0.57176897  0.08843738    -0.18300
C474        C  0.04662902  0.52262999  0.09998749     0.05800
C475        C  0.02920122  0.46619065  0.11256856     0.07600
C476        C  0.01523534  0.42009071  0.13016884    -0.19100
C477        C  0.07705905  0.84466948  0.89933930    -0.18300
C478        C  0.06805089  0.88451352  0.86910938     0.05800
C479        C  0.04870727  0.91195542  0.82153849     0.07600
C480        C  0.03359266  0.90182454  0.77602469    -0.19100
C481        C  0.07792864  0.84095038  0.09983259    -0.18300
C482        C  0.06816720  0.88072544  0.12989716     0.05800
C483        C  0.04781894  0.90852477  0.17683428     0.07600
C484        C  0.03209170  0.89911671  0.22225403    -0.19100
C485        C  0.60140944  0.51260203  0.09601198    -0.18300
C486        C  0.55834117  0.51086336  0.12278378     0.05800
C487        C  0.50527819  0.50860238  0.15006402     0.07600
C488        C  0.45838151  0.50603884  0.16992619    -0.19100
C489        C  0.85486507  0.53386674  0.09122644    -0.18300
C490        C  0.89547984  0.53724174  0.12060683     0.05800
C491        C  0.93446523  0.53684273  0.16390636     0.07600
C492        C  0.94834983  0.53040398  0.21052273    -0.19100
C493        C  0.60548288  0.50500649  0.87735187    -0.18300
C494        C  0.56261310  0.50179202  0.85091512     0.05800
C495        C  0.50848080  0.49870856  0.82671642     0.07600
C496        C  0.45978850  0.49655153  0.81210012    -0.19100
C497        C  0.94545793  0.52391399  0.76111214    -0.18300
C498        C  0.93301971  0.52845694  0.80834042     0.05800
C499        C  0.89502013  0.52861158  0.85262027     0.07600
C500        C  0.85531418  0.52623350  0.88331692    -0.19100
C501        C  0.05051215  0.76398607  0.51574065    -0.18300
C502        C  0.00277464  0.74681824  0.51963821     0.05800
C503        C  0.95769029  0.70811759  0.52478488     0.07600
C504        C  0.93465457  0.66242992  0.52849353    -0.19100
C505        C  0.11290167  0.52228186  0.52140030    -0.18300
C506        C  0.15973869  0.50428104  0.51300362     0.05800
C507        C  0.19593137  0.45758756  0.50299687     0.07600
C508        C  0.20905396  0.40795382  0.49819241    -0.19100
C509        C  0.94795651  0.17284451  0.50855286    -0.18300
C510        C  0.97623251  0.21439686  0.51853349     0.05800
C511        C  0.98751660  0.27306298  0.52900021     0.07600
C512        C  0.98477352  0.32477695  0.53420465    -0.19100
C513        C  0.78392815  0.47701523  0.54035536    -0.18300
C514        C  0.74080360  0.50352575  0.53195605     0.05800
C515        C  0.71304884  0.55497261  0.51711490     0.07600
C516        C  0.70965541  0.60557006  0.50743482    -0.19100
C517        C  0.52764406  0.09043534  0.62678195    -0.18300
C518        C  0.52265844  0.04527892  0.60320431     0.05800
C519        C  0.51550942  0.98913269  0.58234312     0.07600
C520        C  0.51268685  0.93978854  0.56732137    -0.19100
C521        C  0.53103918  0.07768048  0.34486238    -0.18300
C522        C  0.51618879  0.03145503  0.36094096     0.05800
C523        C  0.49931896  0.97483374  0.37229749     0.07600
C524        C  0.49381959  0.92490391  0.38357137    -0.19100
C525        C  0.51299099  0.60791963  0.26269547    -0.18300
C526        C  0.51305961  0.59146526  0.30878370     0.05800
C527        C  0.51003251  0.61536788  0.36098726     0.07600
C528        C  0.50779346  0.65490420  0.39244651    -0.19100
C529        C  0.52762760  0.67177215  0.59192786    -0.18300
C530        C  0.52801444  0.63401071  0.62524933     0.05800
C531        C  0.52341655  0.60832292  0.67649252     0.07600
C532        C  0.51709807  0.61910248  0.72365502    -0.19100
loop_ 
_geom_bond_atom_site_label_1 
_geom_bond_atom_site_label_2 
_geom_bond_distance 
_geom_bond_site_symmetry_2 
_ccdc_geom_bond_type 
O1           Ni9   1.919       .  S
O1           C11   1.280       .  A
O2           Ni9   1.915       .  S
O2           C12   1.280       .  A
O3           Ni9   1.909       .  S
O3           C13   1.279       .  A
O4           Ni9   1.912       .  S
O4           C14   1.278       .  A
O5          Ni10   1.908       .  S
O5           C14   1.279       .  A
O6          Ni10   1.910       .  S
O6           C13   1.278       .  A
O7          Ni10   1.910       .  S
O7           C12   1.279       .  A
O8          Ni10   1.917       .  S
O8           C11   1.280       .  A
Ni9         Ni10   2.396       .  S
C11         C520   1.437       .  S
C12         C528   1.431       .  S
C13         C529   1.428       .  S
C14         C524   1.426       .  S
O15         Ni23   1.918       .  S
O15          C25   1.279       .  A
O16         Ni23   1.913   1_455  S
O16          C26   1.279       .  A
O17         Ni23   1.919       .  S
O17          C27   1.280       .  A
O18         Ni23   1.928       .  S
O18          C28   1.282       .  A
O19         Ni24   1.918       .  S
O19          C28   1.280       .  A
O20         Ni24   1.915       .  S
O20          C27   1.279       .  A
O21         Ni24   1.900   1_455  S
O21          C26   1.276       .  A
O22         Ni24   1.902       .  S
O22          C25   1.277       .  A
Ni23        Ni24   2.395       .  S
C25         C513   1.425       .  S
C26         C505   1.419       .  S
C27         C504   1.433       .  S
C28         C512   1.443       .  S
O29         Ni37   1.925   1_554  S
O29          C39   1.281       .  A
O30         Ni37   1.916       .  S
O30          C40   1.279       .  A
O31         Ni37   1.917       .  S
O31          C41   1.279       .  A
O32         Ni37   1.913   1_554  S
O32          C42   1.279       .  A
O33         Ni38   1.916   1_554  S
O33          C42   1.280       .  A
O34         Ni38   1.920       .  S
O34          C41   1.280       .  A
O35         Ni38   1.919       .  S
O35          C40   1.280       .  A
O36         Ni38   1.927   1_554  S
O36          C39   1.282       .  A
Ni37        Ni38   2.394       .  S
C39         C485   1.446       .  S
C40         C500   1.435       .  S
C41         C493   1.436       .  S
C42         C489   1.432       .  S
O43         Ni51   1.924   1_554  S
O43          C53   1.282       .  A
O44         Ni51   1.924       .  S
O44          C54   1.281       .  A
O45         Ni51   1.925   1_554  S
O45          C55   1.281       .  A
O46         Ni51   1.929       .  S
O46          C56   1.283       .  A
O47         Ni52   1.905       .  S
O47          C56   1.277       .  A
O48         Ni52   1.903   1_554  S
O48          C55   1.275       .  A
O49         Ni52   1.906       .  S
O49          C54   1.276       .  A
O50         Ni52   1.908   1_554  S
O50          C53   1.278       .  A
Ni51        Ni52   2.393       .  S
C53         C473   1.435       .  S
C54         C477   1.433       .  S
C55         C481   1.432       .  S
C56         C469   1.436       .  S
O57         Ni65   1.909   1_565  S
O57          C67   1.278       .  A
O58         Ni65   1.916       .  S
O58          C68   1.279       .  A
O59         Ni65   1.940   1_565  S
O59          C69   1.285       .  A
O60         Ni65   1.926       .  S
O60          C70   1.282       .  A
O61         Ni66   1.919       .  S
O61          C70   1.280   1_556  A
O62         Ni66   1.934   1_565  S
O62          C69   1.283   1_556  A
O63         Ni66   1.909       .  S
O63          C68   1.278   1_556  A
O64         Ni66   1.906   1_565  S
O64          C67   1.278   1_556  A
Ni65        Ni66   2.394   1_554  S
C67         C464   1.424       .  S
C68         C460   1.429       .  S
C69         C456   1.461       .  S
C70         C465   1.441       .  S
O71         Ni77   1.909       .  S
O71          C92   1.260       .  A
O72         Ni95   1.905       .  S
O72          C81   1.269       .  A
O73         Ni77   1.922       .  S
O73         Ni95   1.902       .  S
O73         Ni89   1.905       .  S
O73          H96   0.967       .  S
C74          O91   1.266       .  A
C74          O83   1.273       .  A
C74         C419   1.469       .  S
O75         Ni94   1.937       .  S
O75          C81   1.271       .  A
O76         Ni94   1.927       .  S
O76          C78   1.270       .  A
Ni77         O80   1.948       .  S
Ni77         O82   1.905       .  S
C78          O88   1.281       .  A
C78         C407   1.477       .  S
O79         Ni95   1.930       .  S
O79          C85   1.285       .  A
O80          C85   1.282       .  A
C81         C431   1.467       .  S
O82          C84   1.261       .  A
O83         Ni94   1.956       .  S
C84          O90   1.267       .  A
C84         C425   1.467       .  S
C85         C413   1.477       .  S
H86          O87   0.966       .  S
O87         Ni95   1.931       .  S
O87         Ni89   1.933       .  S
O87         Ni94   1.927       .  S
O88         Ni89   1.971       .  S
Ni89         O93   1.915       .  S
Ni89         O91   1.895       .  S
O90         Ni95   1.939       .  S
C92          O93   1.263       .  A
C92         C371   1.451       .  S
O97        Ni103   1.949       .  S
O97         C118   1.278       .  A
O98        Ni121   1.886       .  S
O98         C107   1.263       .  A
O99        Ni103   1.947       .  S
O99        Ni121   1.892       .  S
O99        Ni115   1.943       .  S
O99         H122   0.967       .  S
C100        O117   1.285       .  A
C100        O109   1.272       .  A
C100        C353   1.500       .  S
O101       Ni120   1.954       .  S
O101        C107   1.275       .  A
O102       Ni120   1.940       .  S
O102        C104   1.279       .  A
Ni103       O106   1.947       .  S
Ni103       O108   1.951       .  S
C104        O114   1.273       .  A
C104        C423   1.479       .  S
O105       Ni121   1.936       .  S
O105        C111   1.274       .  A
O106        C111   1.278       .  A
C107        C389   1.481       .  S
O108        C110   1.276       .  A
O109       Ni120   1.920       .  S
C110        O116   1.271       .  A
C110        C415   1.493       .  S
C111        C365   1.486       .  S
H112        O113   0.967       .  S
O113       Ni121   1.938       .  S
O113       Ni115   1.916       .  S
O113       Ni120   1.944       .  S
O114       Ni115   1.912       .  S
Ni115       O119   1.915       .  S
Ni115       O117   1.972       .  S
O116       Ni121   1.907       .  S
C118        O119   1.276       .  A
C118        C401   1.490       .  S
O123       Ni129   1.970       .  S
O123        C144   1.278       .  A
O124       Ni147   1.996       .  S
O124        C133   1.285       .  A
O125       Ni129   1.941       .  S
O125       Ni147   1.944       .  S
O125       Ni141   1.935       .  S
O125        H148   0.966       .  S
C126        O143   1.287       .  A
C126        O135   1.271       .  A
C126        C427   1.475       .  S
O127       Ni146   1.910       .  S
O127        C133   1.272       .  A
O128       Ni146   1.953       .  S
O128        C130   1.276       .  A
Ni129       O132   1.927       .  S
Ni129       O134   1.952       .  S
C130        O140   1.279       .  A
C130        C383   1.511       .  S
O131       Ni147   1.952       .  S
O131        C137   1.283       .  A
O132        C137   1.275       .  A
C133        C335   1.517       .  S
O134        C136   1.282       .  A
O135       Ni146   1.905       .  S
C136        O142   1.284       .  A
C136        C395   1.499       .  S
C137        C409   1.483       .  S
H138        O139   0.967       .  S
O139       Ni147   1.931       .  S
O139       Ni141   1.922       .  S
O139       Ni146   1.918       .  S
O140       Ni141   1.949       .  S
Ni141       O145   1.937       .  S
Ni141       O143   1.963       .  S
O142       Ni147   1.941       .  S
C144        O145   1.282       .  A
C144        C323   1.524       .  S
O149       Ni155   1.910       .  S
O149        C170   1.267       .  A
O150       Ni173   1.973       .  S
O150        C159   1.273       .  A
O151       Ni155   1.892       .  S
O151       Ni173   1.910       .  S
O151       Ni167   1.911       .  S
O151        H174   0.966       .  S
C152        O169   1.276       .  A
C152        O161   1.285       .  A
C152        C305   1.468       .  S
O153       Ni172   1.920       .  S
O153        C159   1.271       .  A
O154       Ni172   1.914       .  S
O154        C156   1.265       .  A
Ni155       O158   1.924       .  S
Ni155       O160   1.898       .  S
C156        O166   1.277       .  A
C156        C403   1.485       .  S
O157       Ni173   1.917       .  S
O157        C163   1.285       .  A
O158        C163   1.281       .  A
C159        C387   1.502       .  S
O160        C162   1.262       .  A
O161       Ni172   1.946       .  S
C162        O168   1.275       .  A
C162        C391   1.475       .  S
C163        C377   1.453       .  S
H164        O165   0.967       .  S
O165       Ni173   1.932       .  S
O165       Ni167   1.915       .  S
O165       Ni172   1.897       .  S
O166       Ni167   1.945       .  S
Ni167       O171   1.963       .  S
Ni167       O169   1.897       .  S
O168       Ni173   1.943       .  S
C170        O171   1.272       .  A
C170        C397   1.492       .  S
O175       Ni181   1.939       .  S
O175        C196   1.272       .  A
O176       Ni199   1.920       .  S
O176        C185   1.263       .  A
O177       Ni181   1.939       .  S
O177       Ni199   1.930       .  S
O177       Ni193   1.926       .  S
O177        H200   0.967       .  S
C178        O195   1.282       .  A
C178        O187   1.283       .  A
C178        C347   1.478       .  S
O179       Ni198   1.908       .  S
O179        C185   1.257       .  A
O180       Ni198   1.899       .  S
O180        C182   1.253       .  A
Ni181       O184   1.953       .  S
Ni181       O186   1.941       .  S
C182        O192   1.270       .  A
C182        C329   1.471       .  S
O183       Ni199   1.892       .  S
O183        C189   1.267       .  A
O184        C189   1.273       .  A
C185        C375   1.450       .  S
O186        C188   1.273       .  A
O187       Ni198   1.959       .  S
C188        O194   1.277       .  A
C188        C317   1.483       .  S
C189        C359   1.470       .  S
H190        O191   0.968       .  S
O191       Ni199   1.902       .  S
O191       Ni193   1.911       .  S
O191       Ni198   1.917       .  S
O192       Ni193   1.961       .  S
Ni193       O197   1.903       .  S
Ni193       O195   1.918       .  S
O194       Ni199   1.952       .  S
C196        O197   1.268       .  A
C196        C433   1.471       .  S
O201       Ni207   1.940       .  S
O201        C222   1.272       .  A
O202       Ni225   1.896       .  S
O202        C211   1.269       .  A
O203       Ni207   1.945       .  S
O203       Ni225   1.905       .  S
O203       Ni219   1.933       .  S
O203        H226   0.967       .  S
C204        O221   1.273       .  A
C204        O213   1.278       .  A
C204        C369   1.488       .  S
O205       Ni224   1.964       .  S
O205        C211   1.282       .  A
O206       Ni224   1.951       .  S
O206        C208   1.279       .  A
Ni207       O210   1.919       .  S
Ni207       O212   1.941       .  S
C208        O218   1.274       .  A
C208        C351   1.492       .  S
O209       Ni225   1.968       .  S
O209        C215   1.284       .  A
O210        C215   1.273       .  A
C211        C341   1.489       .  S
O212        C214   1.275       .  A
O213       Ni224   1.952       .  S
C214        O220   1.268       .  A
C214        C363   1.479       .  S
C215        C357   1.497       .  S
H216        O217   0.967       .  S
O217       Ni225   1.944       .  S
O217       Ni219   1.899       .  S
O217       Ni224   1.944       .  S
O218       Ni219   1.915       .  S
Ni219       O223   1.897       .  S
Ni219       O221   1.935       .  S
O220       Ni225   1.898       .  S
C222        O223   1.265       .  A
C222        C267   1.478       .  S
O227       Ni233   1.915       .  S
O227        C248   1.271       .  A
O228       Ni251   1.948       .  S
O228        C237   1.286       .  A
O229       Ni233   1.920       .  S
O229       Ni251   1.921       .  S
O229       Ni245   1.934       .  S
O229        H252   0.965       .  S
C230        O247   1.285       .  A
C230        O239   1.277       .  A
C230        C319   1.490       .  S
O231       Ni250   1.967       .  S
O231        C237   1.277       .  A
O232       Ni250   1.942       .  S
O232        C234   1.279       .  A
Ni233       O236   1.917       .  S
Ni233       O238   1.943       .  S
C234        O244   1.285       .  A
C234        C311   1.498       .  S
O235       Ni251   1.963       .  S
O235        C241   1.290       .  A
O236        C241   1.273       .  A
C237        C325   1.524       .  S
O238        C240   1.273       .  A
O239       Ni250   1.926       .  S
C240        O246   1.279       .  A
C240        C299   1.500       .  S
C241        C333   1.478       .  S
H242        O243   0.967       .  S
O243       Ni251   1.931       .  S
O243       Ni245   1.948       .  S
O243       Ni250   1.935       .  S
O244       Ni245   1.950       .  S
Ni245       O249   2.001       .  S
Ni245       O247   1.961       .  S
O246       Ni251   1.946       .  S
C248        O249   1.287       .  A
C248        C339   1.523       .  S
O253       Ni261   1.917       .  S
O253        C263   1.279   1_545  A
O254       Ni261   1.910   1_565  S
O254        C264   1.278       .  A
O255       Ni261   1.917       .  S
O255        C265   1.279   1_545  A
O256       Ni261   1.912       .  S
O256        C266   1.278   1_545  A
O257       Ni262   1.916       .  S
O257        C266   1.279       .  A
O258       Ni262   1.924       .  S
O258        C265   1.281       .  A
O259       Ni262   1.920       .  S
O259        C264   1.279       .  A
O260       Ni262   1.923       .  S
O260        C263   1.281       .  A
Ni261      Ni262   2.393   1_545  S
C263        C441   1.439       .  S
C264        C448   1.433       .  S
C265        C452   1.439       .  S
C266        C437   1.433       .  S
C267        N268   1.365   1_565  A
C267        N272   1.358       .  A
N268        C269   1.369       .  A
C269        C280   1.476       .  S
C269        N270   1.361       .  A
N270        C271   1.355       .  A
C271        C444   1.439       .  S
C271        N272   1.352   1_545  A
O273       Ni279   1.911       .  S
O273        C294   1.268       .  A
O274       Ni297   1.957       .  S
O274        C283   1.268       .  A
O275       Ni279   1.893       .  S
O275       Ni297   1.908       .  S
O275       Ni291   1.927       .  S
O275        H298   0.966       .  S
C276        O293   1.283       .  A
C276        O285   1.283       .  A
C276        C379   1.451       .  S
O277       Ni296   1.916       .  S
O277        C283   1.272       .  A
O278       Ni296   1.908       .  S
O278        C280   1.264       .  A
Ni279       O282   1.942       .  S
Ni279       O284   1.911       .  S
C280        O290   1.273       .  A
O281       Ni297   1.894       .  S
O281        C287   1.277       .  A
O282        C287   1.284       .  A
C283        C315   1.490       .  S
O284        C286   1.265       .  A
O285       Ni296   1.930       .  S
C286        O292   1.273       .  A
C286        C345   1.477       .  S
C287        C307   1.463       .  S
H288        O289   0.966       .  S
O289       Ni297   1.913       .  S
O289       Ni291   1.906       .  S
O289       Ni296   1.885       .  S
O290       Ni291   1.934       .  S
Ni291       O295   1.967       .  S
Ni291       O293   1.910       .  S
O292       Ni297   1.937       .  S
C294        O295   1.271       .  A
C294        C303   1.493       .  S
C299        N300   1.366       .  A
C299        N304   1.388   1_655  A
N300        C301   1.352   1_655  A
C301        C476   1.433       .  S
C301        N302   1.335       .  A
N302        C303   1.349       .  A
C303        N304   1.381       .  A
C305        N306   1.365       .  A
C305        N310   1.361       .  A
N306        C307   1.363   1_556  A
C307        N308   1.356       .  A
N308        C309   1.345   1_554  A
C309        C457   1.430       .  S
C309        N310   1.349       .  A
C311        N312   1.366       .  A
C311        N316   1.389       .  A
N312        C313   1.349       .  A
C313        C521   1.425       .  S
C313        N314   1.330       .  A
N314        C315   1.345       .  A
C315        N316   1.383       .  A
C317        N318   1.384       .  A
C317        N322   1.353       .  A
N318        C319   1.382   1_565  A
C319        N320   1.360       .  A
N320        C321   1.350   1_545  A
C321        C440   1.424       .  S
C321        N322   1.343       .  A
C323        N324   1.395       .  A
C323        N328   1.356       .  A
N324        C325   1.396   1_556  A
C325        N326   1.354       .  A
N326        C327   1.348   1_554  A
C327        C468   1.427       .  S
C327        N328   1.348       .  A
C329        N330   1.352       .  A
C329        N334   1.378       .  A
N330        C331   1.345       .  A
C331        C492   1.419       .  S
C331        N332   1.348       .  A
N332        C333   1.353       .  A
C333        N334   1.375       .  A
C335        N336   1.353       .  A
C335        N340   1.397       .  A
N336        C337   1.345       .  A
C337        C509   1.434       .  S
C337        N338   1.350       .  A
N338        C339   1.359       .  A
C339        N340   1.396       .  A
C341        N342   1.363       .  A
C341        N346   1.368       .  A
N342        C343   1.355       .  A
C343        C488   1.446       .  S
C343        N344   1.354       .  A
N344        C345   1.359       .  A
C345        N346   1.372       .  A
C347        N348   1.359       .  A
C347        N352   1.382   1_655  A
N348        C349   1.346   1_655  A
C349        C484   1.425       .  S
C349        N350   1.342       .  A
N350        C351   1.354       .  A
C351        N352   1.377       .  A
C353        N354   1.368       .  A
C353        N358   1.380   1_556  A
N354        C355   1.354   1_556  A
C355        C453   1.462       .  S
C355        N356   1.352       .  A
N356        C357   1.365       .  A
C357        N358   1.379       .  A
C359        N360   1.357       .  A
C359        N364   1.375       .  A
N360        C361   1.343       .  A
C361        C525   1.424       .  S
C361        N362   1.343       .  A
N362        C363   1.357       .  A
C363        N364   1.373       .  A
C365        N366   1.356       .  A
C365        N370   1.377       .  A
N366        C367   1.350       .  A
C367        C501   1.435       .  S
C367        N368   1.352       .  A
N368        C369   1.359       .  A
C369        N370   1.378       .  A
C371        N372   1.354       .  A
C371        N376   1.363   1_556  A
N372        C373   1.347   1_556  A
C373        C461   1.417       .  S
C373        N374   1.347       .  A
N374        C375   1.353       .  A
C375        N376   1.362       .  A
C377        N378   1.365       .  A
C377        N382   1.354       .  A
N378        C379   1.364       .  A
C379        N380   1.354       .  A
N380        C381   1.344       .  A
C381        C508   1.421       .  S
C381        N382   1.346       .  A
C383        N384   1.369       .  A
C383        N388   1.392   1_655  A
N384        C385   1.354   1_655  A
C385        C472   1.435       .  S
C385        N386   1.333       .  A
N386        C387   1.347       .  A
C387        N388   1.386       .  A
C389        N390   1.364   1_565  A
C389        N394   1.359       .  A
N390        C391   1.371       .  A
C391        N392   1.361       .  A
N392        C393   1.356       .  A
C393        C449   1.440   1_545  S
C393        N394   1.352   1_545  A
C395        N396   1.384       .  A
C395        N400   1.364       .  A
N396        C397   1.382       .  A
C397        N398   1.355       .  A
N398        C399   1.340       .  A
C399        C517   1.437       .  S
C399        N400   1.348       .  A
C401        N402   1.372       .  A
C401        N406   1.359       .  A
N402        C403   1.375       .  A
C403        N404   1.358       .  A
N404        C405   1.353       .  A
C405        C496   1.436       .  S
C405        N406   1.352       .  A
C407        N408   1.378       .  A
C407        N412   1.348       .  A
N408        C409   1.378   1_565  A
C409        N410   1.357       .  A
N410        C411   1.351   1_545  A
C411        C445   1.420       .  S
C411        N412   1.342       .  A
C413        N414   1.382   1_655  A
C413        N418   1.359       .  A
N414        C415   1.377       .  A
C415        N416   1.353       .  A
N416        C417   1.341       .  A
C417        C480   1.425       .  S
C417        N418   1.346   1_455  A
C419        N420   1.353       .  A
C419        N424   1.374       .  A
N420        C421   1.343       .  A
C421        C532   1.421       .  S
C421        N422   1.345       .  A
N422        C423   1.359       .  A
C423        N424   1.375       .  A
C425        N426   1.379       .  A
C425        N430   1.353       .  A
N426        C427   1.374       .  A
C427        N428   1.356       .  A
N428        C429   1.347       .  A
C429        C497   1.421       .  S
C429        N430   1.344       .  A
C431        N432   1.370       .  A
C431        N436   1.353       .  A
N432        C433   1.371       .  A
C433        N434   1.360       .  A
N434        C435   1.350       .  A
C435        C516   1.431       .  S
C435        N436   1.345       .  A
C437        C438   1.204       .  T
C438        C439   1.408       .  S
C439        C440   1.204       .  T
C441        C442   1.208       .  T
C442        C443   1.415   1_665  S
C443        C444   1.208       .  T
C445        C446   1.202       .  T
C446        C447   1.409       .  S
C447        C448   1.204       .  T
C449        C450   1.208       .  T
C450        C451   1.416   1_455  S
C451        C452   1.208       .  T
C453        C454   1.221       .  T
C454        C455   1.437       .  S
C455        C456   1.221       .  T
C457        C458   1.202   1_556  T
C458        C459   1.407       .  S
C459        C460   1.202       .  T
C461        C462   1.194       .  T
C462        C463   1.391       .  S
C463        C464   1.197       .  T
C465        C466   1.208   1_554  T
C466        C467   1.412       .  S
C467        C468   1.203       .  T
C469        C470   1.208       .  T
C470        C471   1.417       .  S
C471        C472   1.209       .  T
C473        C474   1.207       .  T
C474        C475   1.415       .  S
C475        C476   1.207       .  T
C477        C478   1.204       .  T
C478        C479   1.405       .  S
C479        C480   1.199       .  T
C481        C482   1.204       .  T
C482        C483   1.404       .  S
C483        C484   1.198       .  T
C485        C486   1.212       .  T
C486        C487   1.422       .  S
C487        C488   1.212       .  T
C489        C490   1.204       .  T
C490        C491   1.407       .  S
C491        C492   1.201       .  T
C493        C494   1.206       .  T
C494        C495   1.412       .  S
C495        C496   1.206       .  T
C497        C498   1.202       .  T
C498        C499   1.411       .  S
C499        C500   1.205       .  T
C501        C502   1.205       .  T
C502        C503   1.410   1_455  S
C503        C504   1.204       .  T
C505        C506   1.193       .  T
C506        C507   1.392       .  S
C507        C508   1.196       .  T
C509        C510   1.208       .  T
C510        C511   1.417       .  S
C511        C512   1.210       .  T
C513        C514   1.199       .  T
C514        C515   1.403       .  S
C515        C516   1.202       .  T
C517        C518   1.207       .  T
C518        C519   1.415   1_545  S
C519        C520   1.208       .  T
C521        C522   1.202       .  T
C522        C523   1.409   1_545  S
C523        C524   1.202       .  T
C525        C526   1.196       .  T
C526        C527   1.401       .  S
C527        C528   1.202       .  T
C529        C530   1.201       .  T
C530        C531   1.400       .  S
C531        C532   1.196       .  T
