geometry optimzed in LAMMPS
_audit_creation_date              2020-11-30 
_audit_creation_method            'lammps2cif' 
_symmetry_space_group_name_H-M    'P1' 
_symmetry_Int_Tables_number       1 
_symmetry_cell_setting            triclinic 
loop_ 
_symmetry_equiv_pos_as_xyz 
  x,y,z 
_cell_length_a                    30.36883583 
_cell_length_b                    30.399506245287164 
_cell_length_c                    30.428903694518006 
_cell_angle_alpha                 90.09982332929499 
_cell_angle_beta                  90.03448014229673 
_cell_angle_gamma                 90.09367045626138 
loop_ 
_atom_site_label 
_atom_site_type_symbol 
_atom_site_fract_x 
_atom_site_fract_y 
_atom_site_fract_z 
_atom_site_charge 
O1          O  0.58083700  0.72719876  0.67179389    -0.78900
C2          C  0.70277235  0.70851174  0.57211627     0.82200
O3          O  0.54810453  0.63651733  0.55955045    -0.80000
O4          O  0.70449330  0.58010892  0.57870195    -0.81500
O5          O  0.66637966  0.59376972  0.73209748    -0.81300
O6          O  0.57213092  0.67313658  0.72032209    -0.79900
Zn7        Zn  0.61924547  0.69595150  0.62612221     1.55700
O8          O  0.71752608  0.58963606  0.67940914    -0.81300
Cd9        Cd  0.61604570  0.62494472  0.69776794     1.59700
Cd10       Cd  0.59344818  0.59206681  0.59478569     1.59600
O11         O  0.58006231  0.57125218  0.70511234    -0.81300
O12         O  0.62866823  0.63331045  0.63434698    -1.91800
Cd13       Cd  0.69241408  0.62412120  0.62590132     1.59900
O14         O  0.56392034  0.54283997  0.63944215    -0.81200
O15         O  0.72047228  0.67385177  0.58778027    -0.79900
C16         C  0.54704910  0.67907674  0.56127614     0.82600
C17         C  0.55986291  0.70981879  0.70372074     0.82300
O18         O  0.66721375  0.72423727  0.58824507    -0.78800
C19         C  0.70166507  0.57730322  0.71639330     0.83100
O20         O  0.57337030  0.70033711  0.58486569    -0.78900
C21         C  0.56388120  0.54098569  0.68197725     0.83200
C22         C  0.68278991  0.55967052  0.54988591     0.83600
O23         O  0.64022731  0.56009258  0.54965966    -0.81400
O24         O  0.82067854  0.59198853  0.26456653    -0.78900
C25         C  0.91724369  0.71417754  0.29415415     0.82200
O26         O  0.93162891  0.56001711  0.35663988    -0.80000
O27         O  0.89864376  0.71191079  0.41755087    -0.81500
O28         O  0.75485374  0.66585275  0.40652992    -0.81300
O29         O  0.76640109  0.58479929  0.31344771    -0.79900
Zn30       Zn  0.86396524  0.62974040  0.29833104     1.55700
O31         O  0.80078053  0.72302647  0.40258042    -0.81300
Cd32       Cd  0.78852427  0.62192595  0.36625343     1.59700
Cd33       Cd  0.89117384  0.60101530  0.40035994     1.59600
O34         O  0.78152791  0.57696396  0.41198019    -0.81300
O35         O  0.85162188  0.63597905  0.35983640    -1.91800
Cd36       Cd  0.85575914  0.69968866  0.37034727     1.59900
O37         O  0.84631785  0.56586211  0.44478121    -0.81200
O38         O  0.89783007  0.73117083  0.32709988    -0.79900
C39         C  0.93156432  0.56012223  0.31416030     0.82600
C40         C  0.78673073  0.57195085  0.27892603     0.82300
O41         O  0.90255932  0.67934393  0.27560433    -0.78800
C42         C  0.76799126  0.70321729  0.42013846     0.83100
O43         O  0.90715083  0.58556740  0.29294142    -0.78900
C44         C  0.80406077  0.56092149  0.44261885     0.83200
C45         C  0.92796931  0.69116212  0.43794963     0.83600
O46         O  0.93115762  0.64889610  0.43578630    -0.81400
O47         O  0.92320267  0.49252851  0.15537094    -0.78900
C48         C  0.82964502  0.46049887  0.03223296     0.82200
O49         O  0.81958690  0.39392593  0.19269350    -0.80000
O50         O  0.84723587  0.34013711  0.03995267    -0.81500
O51         O  0.99634645  0.35289817  0.07852742    -0.81300
O52         O  0.98108006  0.44740724  0.16108040    -0.79900
Zn53       Zn  0.87943473  0.45654317  0.11990106     1.55700
O54         O  0.94556135  0.34533119  0.02611755    -0.81300
Cd55       Cd  0.96176653  0.39213439  0.12413978     1.59700
Cd56       Cd  0.86160177  0.35385964  0.15027350     1.59600
O57         O  0.97282967  0.34614074  0.16926383    -0.81300
O58         O  0.89745481  0.39603613  0.11254501    -1.91800
Cd59       Cd  0.89314023  0.38482206  0.04849125     1.59900
O60         O  0.90913903  0.31453096  0.18756471    -0.81200
O61         O  0.85183248  0.42888696  0.01562188    -0.79900
C62         C  0.81567105  0.43615343  0.19275981     0.82600
C63         C  0.95926066  0.48128286  0.17373778     0.82300
O64         O  0.84035929  0.47769669  0.06913375    -0.78800
C65         C  0.98110987  0.33257429  0.04496246     0.83100
O66         O  0.83655724  0.45957552  0.16590204    -0.78900
C67         C  0.95157733  0.31727890  0.18997074     0.83200
C68         C  0.82170870  0.31623808  0.06186363     0.83600
O69         O  0.82247366  0.31541276  0.10427034    -0.81400
C70         C  0.74391298  0.53503355  0.98782284     0.79800
N71         N  0.71376451  0.50671194  0.97078097    -0.78500
C72         C  0.72004316  0.46276199  0.97413237     0.82300
N73         N  0.75863253  0.44761973  0.99238128    -0.78400
C74         C  0.78875825  0.47609662  0.01009089     0.82400
N75         N  0.78038813  0.51957099  0.00846134    -0.80100
C76         C  0.03340615  0.52333057  0.26040023     0.79800
N77         N  0.00519178  0.53640315  0.29246351    -0.78500
C78         C  0.96119972  0.53403796  0.28563710     0.82300
N79         N  0.94594259  0.51904551  0.24565509    -0.78400
C80         C  0.97449854  0.50510782  0.21371580     0.82400
N81         N  0.01798277  0.50748793  0.22169198    -0.80100
O82         O  0.61130242  0.25838846  0.83379691    -0.78900
C83         C  0.73743412  0.28999595  0.92442881     0.82200
O84         O  0.56683317  0.35037950  0.93258158    -0.80000
O85         O  0.71873537  0.40840581  0.92248937    -0.81500
O86         O  0.68679314  0.40662347  0.76996343    -0.81300
O87         O  0.60607929  0.30575531  0.77791047    -0.79900
Zn88       Zn  0.64685009  0.29369602  0.87803495     1.55700
O89         O  0.73508159  0.41478793  0.82452602    -0.81300
Cd90       Cd  0.64312805  0.36055435  0.79838078     1.59700
Cd91       Cd  0.61015520  0.39530813  0.89609356     1.59600
O92         O  0.59724167  0.40466076  0.78392035    -0.81300
O93         O  0.65154519  0.35510458  0.86270110    -1.91800
Cd94       Cd  0.71458252  0.36927953  0.87122672     1.59900
O95         O  0.57571424  0.43563828  0.84665290    -0.81200
O96         O  0.75293947  0.32257784  0.90303969    -0.79900
C97         C  0.56981817  0.30819003  0.93729547     0.82600
C98         C  0.59256516  0.27150565  0.79866816     0.82300
O99         O  0.69978859  0.27340337  0.91495643    -0.78800
C100        C  0.71761792  0.42834016  0.78879545     0.83100
O101        O  0.60053483  0.28663911  0.91996349    -0.78900
C102        C  0.57570599  0.43355066  0.80415890     0.83200
C103        C  0.69461561  0.43335502  0.94483470     0.83600
O104        O  0.65248119  0.43511042  0.93898239    -0.81400
O105        O  0.49505409  0.14888382  0.92806570    -0.78900
C106        C  0.45866876  0.02472744  0.83203499     0.82200
O107        O  0.40801037  0.19092741  0.81935168    -0.80000
O108        O  0.33281634  0.03900523  0.83961839    -0.81500
O109        O  0.35499325  0.07906975  0.99441777    -0.81300
O110        O  0.44370131  0.16267636  0.97843871    -0.79900
Zn111      Zn  0.45898558  0.11330432  0.88232186     1.55700
O112        O  0.34029626  0.02869635  0.94284685    -0.81300
Cd113      Cd  0.39054644  0.12437463  0.95721528     1.59700
Cd114      Cd  0.35875250  0.14932198  0.85397596     1.59600
O115        O  0.34193597  0.16680966  0.96541944    -0.81300
O116        O  0.39584839  0.11011056  0.89342590    -1.91800
Cd117      Cd  0.37761839  0.04734847  0.88743848     1.59900
O118        O  0.31400642  0.18481392  0.90011974    -0.81200
O119        O  0.42322406  0.01123531  0.85023602    -0.79900
C120        C  0.45065066  0.18808640  0.81903797     0.82600
C121        C  0.48090465  0.17136758  0.96072099     0.82300
O122        O  0.47797855  0.06007304  0.84485677    -0.78800
C123        C  0.33232110  0.04662147  0.98023100     0.83100
O124        O  0.47017517  0.15877156  0.84048556    -0.78900
C125        C  0.31338350  0.18632669  0.94280522     0.83200
C126        C  0.31740134  0.06207111  0.80885403     0.83600
O127        O  0.32341372  0.10433261  0.80788573    -0.81400
C128        C  0.51315984  0.26307126  0.03419176     0.79800
N129        N  0.49910944  0.22338778  0.01920533    -0.78500
C130        C  0.50506622  0.21126587  0.97693318     0.82300
N131        N  0.52588722  0.24018463  0.94923124    -0.78400
C132        C  0.53927719  0.28107311  0.96397138     0.82400
N133        N  0.53282450  0.29199924  0.00657511    -0.80100
C134        C  0.50493616  0.23749192  0.72218385     0.79800
N135        N  0.54275367  0.25334396  0.73933581    -0.78500
C136        C  0.55186637  0.24928092  0.78231806     0.82300
N137        N  0.52078243  0.23030604  0.80924962    -0.78400
C138        C  0.48075779  0.21636526  0.79243233     0.82400
N139        N  0.47385350  0.21921491  0.74858072    -0.80100
C140        C  0.54288797  0.97446130  0.76090520     0.79800
N141        N  0.52168503  0.99143472  0.79607997    -0.78500
C142        C  0.47813137  0.00017942  0.79424395     0.82300
N143        N  0.45545876  0.99182114  0.75562478    -0.78400
C144        C  0.47750929  0.97502291  0.71962662     0.82400
N145        N  0.52084400  0.96661270  0.72323503    -0.80100
C146        C  0.96233093  0.01629019  0.24555751     0.79800
N147        N  0.98985463  0.03584009  0.21616733    -0.78500
C148        C  0.03407513  0.03459089  0.22251935     0.82300
N149        N  0.05019297  0.01536309  0.26027777    -0.78400
C150        C  0.02240258  0.99515430  0.28954538     0.82400
N151        N  0.97887164  0.99520823  0.28108456    -0.80100
C152        C  0.24347659  0.27723908  0.98516053     0.79800
N153        N  0.23443470  0.26298727  0.02633433    -0.78500
C154        C  0.24758004  0.22317712  0.04060830     0.82300
N155        N  0.27120154  0.19709191  0.01230253    -0.78400
C156        C  0.28059138  0.21099516  0.97002464     0.82400
N157        N  0.26629782  0.25109700  0.95687476    -0.80100
C158        C  0.24991664  0.96879064  0.02342596     0.79800
N159        N  0.21756127  0.99528680  0.03908679    -0.78500
C160        C  0.22299368  0.03955540  0.03864466     0.82300
N161        N  0.26178557  0.05690104  0.02245966    -0.78400
C162        C  0.29394390  0.02999201  0.00584875     0.82400
N163        N  0.28745111  0.98637766  0.00705514    -0.80100
C164        C  0.27011463  0.96915957  0.24113185     0.79800
N165        N  0.24166695  0.94241443  0.26248996    -0.78500
C166        C  0.20273550  0.95799645  0.27700097     0.82300
N167        N  0.19180017  0.00136852  0.26892202    -0.78400
C168        C  0.22004036  0.02833822  0.24617661     0.82400
N169        N  0.25904013  0.01163594  0.23314850    -0.80100
C170        C  0.00004760  0.23261242  0.97740099     0.79800
N171        N  0.02216574  0.20566788  0.00504038    -0.78500
C172        C  0.03479163  0.22034740  0.04502194     0.82300
N173        N  0.02463566  0.26290168  0.05738572    -0.78400
C174        C  0.00135140  0.29002755  0.02982500     0.82400
N175        N  0.98952402  0.27419455  0.98999651    -0.80100
C176        C  0.00217847  0.27054617  0.28965123     0.79800
N177        N  0.03897193  0.25140630  0.27354450    -0.78500
C178        C  0.04801657  0.25253900  0.23025884     0.82300
N179        N  0.01821000  0.27174695  0.20235962    -0.78400
C180        C  0.97933978  0.28883249  0.21820315     0.82400
N181        N  0.97228441  0.28900700  0.26209718    -0.80100
O182        O  0.10771463  0.24093938  0.18020373    -0.78900
C183        C  0.22816515  0.20706138  0.08300880     0.82200
O184        O  0.06479907  0.15045042  0.07207436    -0.80000
O185        O  0.21684116  0.08804236  0.09566922    -0.81500
O186        O  0.17384372  0.09302160  0.24419977    -0.81300
O187        O  0.09655097  0.19149494  0.23337313    -0.79900
Zn188      Zn  0.14034020  0.20518043  0.13429755     1.55700
O189        O  0.22742328  0.08687852  0.19439217    -0.81300
Cd190      Cd  0.13102574  0.13620837  0.21139373     1.59700
Cd191      Cd  0.10627618  0.10457576  0.10919882     1.59600
O192        O  0.08315680  0.09225657  0.21918746    -0.81300
O193        O  0.14476243  0.14333485  0.14798740    -1.91800
Cd194      Cd  0.20891237  0.13051888  0.14381355     1.59900
O195        O  0.06707324  0.06289080  0.15395964    -0.81200
O196        O  0.24487664  0.17487302  0.10426053    -0.79900
C197        C  0.06516848  0.19299160  0.07175567     0.82600
C198        C  0.08693751  0.22773625  0.21418272     0.82300
O199        O  0.19162828  0.22426193  0.09507202    -0.78800
C200        C  0.20700389  0.07253870  0.22845498     0.83100
O201        O  0.09309859  0.21438071  0.09350464    -0.78900
C202        C  0.06289247  0.06428533  0.19629754     0.83200
C203        C  0.19496936  0.06668352  0.06786431     0.83600
O204        O  0.15235358  0.06739764  0.06737433    -0.81400
O205        O  0.47873702  0.83844611  0.57822709    -0.78900
C206        C  0.45556836  0.95703679  0.67951854     0.82200
O207        O  0.38038018  0.80150952  0.68543906    -0.80000
O208        O  0.33440703  0.96227762  0.66778267    -0.81500
O209        O  0.34001964  0.91499131  0.51657164    -0.81300
O210        O  0.42789686  0.82985579  0.52603475    -0.79900
Zn211      Zn  0.44422445  0.87255239  0.62479458     1.55700
O212        O  0.33829629  0.96909241  0.56668434    -0.81300
Cd213      Cd  0.37576144  0.86796443  0.54988636     1.59700
Cd214      Cd  0.33993301  0.85047755  0.65173816     1.59600
O215        O  0.32591657  0.82612728  0.54185648    -0.81300
O216        O  0.38319961  0.88318216  0.61301904    -1.91800
Cd217      Cd  0.37643331  0.94782537  0.61965616     1.59900
O218        O  0.29139066  0.82104303  0.60639013    -0.81200
O219        O  0.42488281  0.97760925  0.65951707    -0.79900
C220        C  0.42270447  0.79746363  0.68407831     0.82600
C221        C  0.46440226  0.81887074  0.54388751     0.82300
O222        O  0.46836669  0.91921148  0.66625786    -0.78800
C223        C  0.32313229  0.95002441  0.53213117     0.83100
O224        O  0.44621735  0.82370945  0.66271798    -0.78900
C225        C  0.29323851  0.81422643  0.56439727     0.83200
C226        C  0.31407746  0.94181222  0.69740591     0.83600
O227        O  0.31186515  0.89929378  0.69750940    -0.81400
O228        O  0.07096027  0.98204785  0.35094285    -0.78900
C229        C  0.16957059  0.94195070  0.46922409     0.82200
O230        O  0.17687973  0.88842369  0.30907018    -0.80000
O231        O  0.14486300  0.81181755  0.46206109    -0.81500
O232        O  0.00113046  0.84579620  0.42156634    -0.81300
O233        O  0.01986306  0.93180219  0.33529822    -0.79900
Zn234      Zn  0.11576157  0.94389573  0.38388817     1.55700
O235        O  0.04837068  0.84126882  0.47778392    -0.81300
Cd236      Cd  0.03888807  0.87849000  0.37450489     1.59700
Cd237      Cd  0.14283150  0.84374076  0.35432842     1.59600
O238        O  0.03236175  0.82907445  0.33270482    -0.81300
O239        O  0.10198268  0.88225082  0.38961896    -1.91800
Cd240      Cd  0.10738516  0.86556016  0.45265778     1.59900
O241        O  0.09796831  0.79819069  0.32001738    -0.81200
O242        O  0.15194560  0.90703198  0.48423397    -0.79900
C243        C  0.17692008  0.93094649  0.30844792     0.82600
C244        C  0.03842097  0.96884790  0.32773265     0.82300
O245        O  0.15496461  0.96114990  0.43474334    -0.78800
C246        C  0.01298135  0.82920252  0.45822486     0.83100
O247        O  0.15602875  0.95265607  0.33659191    -0.78900
C248        C  0.05551194  0.79924739  0.31567664     0.83200
C249        C  0.18158131  0.80424363  0.44420565     0.83600
O250        O  0.18846167  0.81465758  0.40350635    -0.81400
C251        C  0.98701299  0.73773168  0.53309508     0.79800
N252        N  0.96714970  0.70817283  0.50614416    -0.78500
C253        C  0.95744081  0.71943500  0.46430063     0.82300
N254        N  0.96856043  0.76064383  0.44927802    -0.78400
C255        C  0.98953660  0.79012007  0.47609039     0.82400
N256        N  0.99808220  0.77817854  0.51787524    -0.80100
C257        C  0.23828672  0.03100851  0.50823101     0.79800
N258        N  0.27749851  0.01225086  0.51643513    -0.78500
C259        C  0.28253164  0.96844768  0.51268067     0.82300
N260        N  0.24699592  0.94302838  0.49981720    -0.78400
C261        C  0.20704601  0.96300746  0.49166241     0.82400
N262        N  0.20350577  0.00661679  0.49636757    -0.80100
C263        C  0.24055225  0.71983161  0.51023652     0.79800
N264        N  0.26220746  0.74513014  0.53996593    -0.78500
C265        C  0.25967673  0.78941639  0.53884983     0.82300
N266        N  0.23682238  0.80884176  0.50496681    -0.78400
C267        C  0.21521531  0.78381694  0.47393087     0.82400
N268        N  0.21646395  0.73931171  0.47781673    -0.80100
C269        C  0.00875590  0.74172768  0.21970641     0.79800
N270        N  0.97071438  0.72567132  0.23621925    -0.78500
C271        C  0.95964010  0.73258670  0.27839343     0.82300
N272        N  0.98894183  0.75381461  0.30532209    -0.78400
C273        C  0.02932512  0.76730741  0.28969186     0.82400
N274        N  0.03819059  0.76245007  0.24632544    -0.80100
C275        C  0.22589828  0.00860715  0.74658746     0.79800
N276        N  0.24875775  0.03849179  0.77130509    -0.78500
C277        C  0.29334657  0.03591779  0.77445951     0.82300
N278        N  0.31443539  0.00173894  0.75349889    -0.78400
C279        C  0.29142893  0.97090665  0.72959551     0.82400
N280        N  0.24749003  0.97556582  0.72575855    -0.80100
C281        C  0.76539574  0.21852064  0.01831549     0.79800
N282        N  0.75289383  0.23230512  0.97779760    -0.78500
C283        C  0.76012731  0.27399770  0.96471842     0.82300
N284        N  0.78069290  0.30216905  0.99321432    -0.78400
C285        C  0.79277344  0.28849975  0.03460791     0.82400
N286        N  0.78487560  0.24662990  0.04686917    -0.80100
C287        C  0.46468834  0.73184208  0.77629960     0.79800
N288        N  0.43630155  0.75383612  0.74994181    -0.78500
C289        C  0.44839988  0.76431294  0.70852783     0.82300
N290        N  0.48971175  0.75260186  0.69375521    -0.78400
C291        C  0.51801933  0.72967682  0.72014132     0.82400
N292        N  0.50490315  0.71976829  0.76116811    -0.80100
C293        C  0.50782659  0.73804568  0.46395900     0.79800
N294        N  0.49081461  0.77520374  0.48182284    -0.78500
C295        C  0.48816240  0.78004067  0.52577762     0.82300
N296        N  0.50291962  0.74657695  0.55207310    -0.78400
C297        C  0.51873076  0.70801089  0.53421024     0.82400
N298        N  0.52144358  0.70447830  0.49000037    -0.80100
C299        C  0.73958347  0.79359630  0.49309038     0.79800
N300        N  0.72408579  0.77392463  0.53000221    -0.78500
C301        C  0.72160830  0.72931490  0.53204877     0.82300
N302        N  0.73326345  0.70463278  0.49571259    -0.78400
C303        C  0.74722511  0.72537006  0.45808903     0.82400
N304        N  0.75135065  0.76911456  0.45836618    -0.80100
C305        C  0.48066279  0.47977516  0.74466493     0.79800
N306        N  0.50002925  0.50263324  0.71153635    -0.78500
C307        C  0.54436599  0.50498611  0.70864966     0.82300
N308        N  0.56914344  0.48524647  0.74096551    -0.78400
C309        C  0.54964134  0.46286450  0.77503942     0.82400
N310        N  0.50540151  0.45983231  0.77594444    -0.80100
C311        C  0.79570233  0.51667708  0.76002558     0.79800
N312        N  0.77777607  0.47874134  0.77470878    -0.78500
C313        C  0.73426821  0.47078627  0.77049638     0.82300
N314        N  0.70764731  0.50339424  0.75357072    -0.78400
C315        C  0.72605111  0.54288019  0.74053484     0.82400
N316        N  0.76999052  0.54807984  0.74255303    -0.80100
C317        C  0.73794852  0.47050816  0.48686592     0.79800
N318        N  0.77174145  0.49278955  0.46793079    -0.78500
C319        C  0.77692338  0.53636112  0.47449193     0.82300
N320        N  0.74565896  0.55820910  0.49846899    -0.78400
C321        C  0.71058701  0.53649192  0.51687819     0.82400
N322        N  0.70741573  0.49230277  0.51146506    -0.80100
C323        C  0.71742202  0.47585884  0.25316854     0.79800
N324        N  0.74490064  0.44864312  0.23064350    -0.78500
C325        C  0.78713514  0.46146160  0.22316183     0.82300
N326        N  0.80043910  0.50277468  0.23628560    -0.78400
C327        C  0.77248255  0.52988973  0.25869356     0.82400
N328        N  0.73173420  0.51540950  0.26771446    -0.80100
O329        O  0.06016270  0.33609425  0.73074559    -0.78900
C330        C  0.19636882  0.42013830  0.73397288     0.82200
O331        O  0.06804413  0.46892592  0.64556750    -0.80000
O332        O  0.20166688  0.43656621  0.60914107    -0.81500
O333        O  0.15890355  0.28659142  0.59957818    -0.81300
O334        O  0.07160790  0.27999949  0.68497658    -0.79900
Zn335      Zn  0.10509012  0.38421769  0.70959278     1.55700
O336        O  0.21015745  0.33929297  0.59835133    -0.81300
Cd337      Cd  0.10929023  0.31262560  0.63819493     1.59700
Cd338      Cd  0.09245575  0.41495825  0.60431128     1.59600
O339        O  0.06036033  0.30784940  0.59613201    -0.81300
O340        O  0.12074911  0.37543924  0.64928541    -1.91800
Cd341      Cd  0.18513329  0.38305584  0.64377705     1.59900
O342        O  0.04262216  0.37366899  0.56973395    -0.81200
O343        O  0.21450812  0.39855668  0.70278524    -0.79900
C344        C  0.06353121  0.46992858  0.68784065     0.82600
C345        C  0.04950021  0.29795677  0.71579966     0.82300
O346        O  0.15590034  0.41419896  0.74391042    -0.78800
C347        C  0.19339799  0.30418783  0.58298846     0.83100
O348        O  0.07230759  0.43727554  0.71167201    -0.78900
C349        C  0.03644852  0.33151062  0.57228074     0.83200
C350        C  0.18710264  0.44493881  0.57122171     0.83600
O351        O  0.14646761  0.43699899  0.56120703    -0.81400
O352        O  0.55584258  0.14741488  0.46449406    -0.78900
C353        C  0.67815514  0.04579527  0.44867473     0.82200
O354        O  0.68121516  0.18517262  0.38331148    -0.80000
O355        O  0.65616385  0.03933261  0.31554797    -0.81500
O356        O  0.51705089  0.05828598  0.32381086    -0.81300
O357        O  0.50364827  0.14436184  0.41282184    -0.79900
Zn358      Zn  0.61005906  0.11779350  0.43724141     1.55700
O359        O  0.56986543  0.00805432  0.33325586    -0.81300
Cd360      Cd  0.53776828  0.11221494  0.36241516     1.59700
Cd361      Cd  0.63867355  0.14924480  0.33618920     1.59600
O362        O  0.52568287  0.16265375  0.32229815    -0.81300
O363        O  0.60210863  0.10838373  0.37461074    -1.91800
Cd364      Cd  0.61723274  0.04531975  0.36688668     1.59900
O365        O  0.58989164  0.19378745  0.30473059    -0.81200
O366        O  0.66399268  0.02624825  0.41407297    -0.79900
C367        C  0.67883549  0.18651638  0.42580814     0.82600
C368        C  0.51889688  0.16025116  0.44861367     0.82300
O369        O  0.65643439  0.07736778  0.46584461    -0.78800
C370        C  0.53529906  0.02167543  0.31349785     0.83100
O371        O  0.65025660  0.16489179  0.44629379    -0.78900
C372        C  0.54713538  0.19318247  0.30424595     0.83200
C373        C  0.67685596  0.06250323  0.28842855     0.83600
O374        O  0.67586964  0.10518495  0.29042368    -0.81400
C375        C  0.49006452  0.24006312  0.53527929     0.79800
N376        N  0.47215684  0.27398352  0.51246333    -0.78500
C377        C  0.46546978  0.27028923  0.46867469     0.82300
N378        N  0.47722817  0.23169096  0.44780920    -0.78400
C379        C  0.49640486  0.19788597  0.47073041     0.82400
N380        N  0.50218998  0.20266787  0.51433632    -0.80100
O381        O  0.39665667  0.32312042  0.28817281    -0.78900
C382        C  0.29214374  0.44229431  0.30721789     0.82200
O383        O  0.43794953  0.43766461  0.37275768    -0.82400
O384        O  0.29007693  0.42011594  0.44092407    -0.81500
O385        O  0.30300555  0.27987230  0.42193120    -0.81300
O386        O  0.39239068  0.26781798  0.33569091    -0.79900
Zn387      Zn  0.36197826  0.37304755  0.31660699     1.55700
O388        O  0.25548687  0.33603051  0.41995624    -0.81300
Cd389      Cd  0.35694835  0.29999556  0.38494044     1.59700
Cd390      Cd  0.39852352  0.39696579  0.41862930     1.59600
O391        O  0.40458109  0.28356427  0.42598638    -0.81300
O392        O  0.35510984  0.36470550  0.37867062    -1.91800
Cd393      Cd  0.29336626  0.38264980  0.38830960     1.59900
O394        O  0.43889208  0.34439415  0.44868538    -0.81200
O395        O  0.27381672  0.42953502  0.34275098    -0.79900
C396        C  0.43453817  0.43765092  0.33035754     0.82600
C397        C  0.41043958  0.28607365  0.30260353     0.82300
O398        O  0.32200558  0.41930428  0.28871388    -0.78800
C399        C  0.26852276  0.29962583  0.43600987     0.83100
O400        O  0.40739902  0.41338181  0.31127941    -0.78900
C401        C  0.43543110  0.30192962  0.44659139     0.83200
C402        C  0.31452889  0.43759967  0.46924849     0.83600
O403        O  0.35711316  0.43426235  0.46694664    -0.81400
C404        C  0.53142632  0.47443004  0.26757201     0.79800
N405        N  0.51239202  0.48580284  0.22895282    -0.78500
C406        C  0.46850568  0.48689384  0.22407817     0.82300
N407        N  0.44295073  0.47505242  0.25915222    -0.78400
C408        C  0.46166985  0.46297379  0.29872584     0.82400
N409        N  0.50613995  0.46292290  0.30259558    -0.80100
C410        C  0.49420795  0.72528414  0.95794031     0.79800
N411        N  0.48179331  0.69056410  0.98231306    -0.78500
C412        C  0.49135654  0.68790495  0.02531184     0.82300
N413        N  0.51165281  0.72317105  0.04541898    -0.78400
C414        C  0.52409416  0.75931139  0.02083690     0.82400
N415        N  0.51598364  0.75938863  0.97698365    -0.80100
O416        O  0.32250874  0.51959405  0.09159326    -0.78900
C417        C  0.45047312  0.50977111  0.18459483     0.82200
O418        O  0.32676977  0.61606826  0.21393373    -0.80000
O419        O  0.47935415  0.64139422  0.17719581    -0.81500
O420        O  0.43334109  0.63724879  0.03397893    -0.81300
O421        O  0.33653354  0.56263791  0.03429489    -0.79900
Zn422      Zn  0.36803925  0.54143703  0.13810533     1.55700
O423        O  0.48709620  0.63451443  0.08387259    -0.81300
Cd424      Cd  0.38023614  0.60680398  0.06339483     1.59700
Cd425      Cd  0.36586003  0.64992718  0.16329900     1.59600
O426        O  0.33826007  0.65538445  0.05527198    -0.81300
O427        O  0.39113908  0.59968655  0.12687875    -1.91800
Cd428      Cd  0.45639373  0.59757193  0.13345093     1.59900
O429        O  0.32563029  0.69017963  0.11830828    -0.81200
O430        O  0.47432050  0.53973496  0.16669429    -0.79900
C431        C  0.31801212  0.57445966  0.21620429     0.82600
C432        C  0.31260969  0.53383767  0.05323836     0.82300
O433        O  0.41090566  0.50266362  0.17224902    -0.78800
C434        C  0.47023294  0.65083959  0.04914469     0.83100
O435        O  0.33150123  0.54780997  0.18772864    -0.78900
C436        C  0.31933093  0.68530881  0.07653720     0.83200
C437        C  0.46449548  0.67723104  0.19186310     0.83600
O438        O  0.42301011  0.68678145  0.18932414    -0.81400
C439        C  0.25537852  0.53084897  0.51967962     0.79800
N440        N  0.22106899  0.50990716  0.53910420    -0.78500
C441        C  0.21938111  0.46562752  0.54074082     0.82300
N442        N  0.25352662  0.44204400  0.52283457    -0.78400
C443        C  0.28869650  0.46261499  0.50284211     0.82400
N444        N  0.28882439  0.50730051  0.50113792    -0.80100
O445        O  0.53760972  0.90016429  0.15972971    -0.78900
C446        C  0.54773351  0.79781639  0.04056112     0.82200
O447        O  0.63329858  0.78583787  0.18492492    -0.80000
O448        O  0.68256423  0.81189630  0.03907658    -0.81500
O449        O  0.66235271  0.95831017  0.06257129    -0.81300
O450        O  0.57868857  0.96011678  0.15042931    -0.79900
Zn451      Zn  0.56584791  0.85203491  0.12277604     1.55700
O452        O  0.66981923  0.90334200  0.01444358    -0.81300
Cd453      Cd  0.62933270  0.93144012  0.11526849     1.59700
Cd454      Cd  0.67161039  0.83694242  0.14924037     1.59600
O455        O  0.67018103  0.94914919  0.16269363    -0.81300
O456        O  0.62600206  0.86646227  0.11007469    -1.91800
Cd457      Cd  0.63324712  0.85355232  0.04632146     1.59900
O458        O  0.69803651  0.88916147  0.19373457    -0.81200
O459        O  0.58194007  0.81330743  0.02125611    -0.79900
C460        C  0.59094455  0.78040249  0.18494240     0.82600
C461        C  0.54807243  0.93957720  0.17023040     0.82300
O462        O  0.53453537  0.81378503  0.07704258    -0.78800
C463        C  0.68090140  0.94127785  0.02889135     0.83100
O464        O  0.56620644  0.80542522  0.16354829    -0.78900
C465        C  0.69268226  0.93146717  0.19240427     0.83200
C466        C  0.71724126  0.80318445  0.06004512     0.83600
O467        O  0.72096598  0.81104782  0.10182031    -0.81400
C468        C  0.75834202  0.72081681  0.98431920     0.79800
N469        N  0.77907735  0.74592650  0.95368808    -0.78500
C470        C  0.78714198  0.78893380  0.96158741     0.82300
N471        N  0.77234854  0.80714951  0.00037846    -0.78400
C472        C  0.75103730  0.78227091  0.03150762     0.82400
N473        N  0.74483565  0.73908285  0.02281076    -0.80100
O474        O  0.88830446  0.18293557  0.71803151    -0.78900
C475        C  0.79464484  0.05797619  0.69532551     0.82200
O476        O  0.93987853  0.06644495  0.63464942    -0.80000
O477        O  0.79249530  0.08624506  0.56177009    -0.81500
O478        O  0.80013818  0.22298584  0.57827671    -0.81300
O479        O  0.88877545  0.23621974  0.66769875    -0.79900
Zn480      Zn  0.86366278  0.12898485  0.68781725     1.55700
O481        O  0.75284628  0.16688989  0.58309166    -0.81300
Cd482      Cd  0.85502435  0.20395195  0.61673707     1.59700
Cd483      Cd  0.90077195  0.10755815  0.58808404     1.59600
O484        O  0.90357895  0.22090575  0.57643251    -0.81300
O485        O  0.85534213  0.13923194  0.62577607    -1.91800
Cd486      Cd  0.79319310  0.12107691  0.61573831     1.59900
O487        O  0.94240976  0.16057675  0.56081376    -0.81200
O488        O  0.77582900  0.07074210  0.65987473    -0.79900
C489        C  0.93929940  0.06698777  0.67728111     0.82600
C490        C  0.90295313  0.21967928  0.70353278     0.82300
O491        O  0.82402287  0.08155959  0.71390174    -0.78800
C492        C  0.76506611  0.20307109  0.56542407     0.83100
O493        O  0.91326059  0.09169490  0.69763906    -0.78900
C494        C  0.93717336  0.20285344  0.56026163     0.83200
C495        C  0.81769636  0.06942948  0.53385000     0.83600
O496        O  0.86027366  0.07186745  0.53783066    -0.81400
C497        C  0.72567836  0.96413102  0.72995265     0.79800
N498        N  0.75417824  0.93750812  0.75139991    -0.78500
C499        C  0.79721260  0.94833903  0.75424999     0.82300
N500        N  0.81088081  0.98823674  0.73737495    -0.78400
C501        C  0.78221623  0.01441176  0.71428768     0.82400
N502        N  0.74007448  0.00131923  0.71019328    -0.80100
O503        O  0.83567985  0.97011332  0.91429375    -0.78900
C504        C  0.95967623  0.97951891  0.81562994     0.82200
O505        O  0.82630732  0.88349761  0.79275573    -0.80000
O506        O  0.97454049  0.84000105  0.82218606    -0.81500
O507        O  0.94618266  0.84983955  0.96749081    -0.81300
O508        O  0.85322502  0.92891561  0.97225996    -0.79900
Zn509      Zn  0.87895533  0.95104626  0.86591733     1.55700
O510        O  0.99653919  0.85561016  0.91431431    -0.81300
Cd511      Cd  0.89150514  0.88191460  0.94126781     1.59700
Cd512      Cd  0.86268679  0.84527571  0.84203128     1.59600
O513        O  0.84524161  0.83732533  0.95381764    -0.81300
O514        O  0.89747555  0.89091301  0.87664089    -1.91800
Cd515      Cd  0.96160784  0.88879246  0.86447770     1.59900
O516        O  0.81949558  0.81144687  0.89029058    -0.81200
O517        O  0.98005324  0.94424433  0.82677900    -0.79900
C518        C  0.82385235  0.92572148  0.78823974     0.82600
C519        C  0.82797781  0.95653292  0.95334419     0.82300
O520        O  0.92380888  0.99079165  0.83450810    -0.78800
C521        C  0.98276437  0.83837424  0.95011467     0.83100
O522        O  0.84194421  0.95134048  0.81517441    -0.78900
C523        C  0.81837165  0.81377839  0.93284773     0.83200
C524        C  0.95447220  0.80697330  0.80688674     0.83600
O525        O  0.91229496  0.80228076  0.81124773    -0.81400
O526        O  0.10966073  0.68577561  0.78316346    -0.78900
C527        C  0.21788769  0.57146884  0.79847358     0.82200
O528        O  0.06942030  0.56728475  0.85878093    -0.80000
O529        O  0.21099970  0.58338007  0.93443186    -0.81500
O530        O  0.19947658  0.72592678  0.92367724    -0.81300
O531        O  0.11265057  0.73945301  0.83299524    -0.79900
Zn532      Zn  0.14501978  0.63562572  0.80908216     1.55700
O533        O  0.24737794  0.67020812  0.92144137    -0.81300
Cd534      Cd  0.14805732  0.70629910  0.88170236     1.59700
Cd535      Cd  0.10518164  0.60738606  0.90660020     1.59600
O536        O  0.09838889  0.71870037  0.92147983    -0.81300
O537        O  0.15056421  0.64207292  0.87164113    -1.91800
Cd538      Cd  0.21168389  0.62479104  0.88455961     1.59900
O539        O  0.06311847  0.65644525  0.93790621    -0.81200
O540        O  0.23346259  0.58135982  0.83628228    -0.79900
C541        C  0.07531962  0.56662701  0.81682190     0.82600
C542        C  0.09504970  0.72184736  0.79914806     0.82300
O543        O  0.18936147  0.59563669  0.77950708    -0.78800
C544        C  0.23334348  0.70579170  0.93879283     0.83100
O545        O  0.10239377  0.59178346  0.79872442    -0.78900
C546        C  0.06675695  0.69877302  0.93915767     0.83200
C547        C  0.18414092  0.56341699  0.95868590     0.83600
O548        O  0.14207932  0.56710652  0.95350098    -0.81400
C549        C  0.00587209  0.73969434  0.71885430     0.79800
N550        N  0.97551711  0.76331156  0.74183139    -0.78500
C551        C  0.98361506  0.77469843  0.78426669     0.82300
N552        N  0.02375405  0.76406113  0.80260481    -0.78400
C553        C  0.05405740  0.74006190  0.77939236     0.82400
N554        N  0.04388133  0.72725488  0.73825854    -0.80100
C555        C  0.98214040  0.52910503  0.75016290     0.79800
N556        N  0.00265598  0.51243971  0.71425865    -0.78500
C557        C  0.04661988  0.50749955  0.71352738     0.82300
N558        N  0.07027242  0.52176327  0.74927338    -0.78400
C559        C  0.04985226  0.53985020  0.78526684     0.82400
N560        N  0.00561915  0.54253952  0.78564343    -0.80100
C561        C  0.29413649  0.48583967  0.76140974     0.79800
N562        N  0.27715186  0.52464093  0.77454525    -0.78500
C563        C  0.23333594  0.53021558  0.77766488     0.82300
N564        N  0.20570989  0.49552104  0.76764746    -0.78400
C565        C  0.22314512  0.45566853  0.75473977     0.82400
N566        N  0.26737381  0.45171035  0.75153325    -0.80100
C567        C  0.77364199  0.97448245  0.47305806     0.79800
N568        N  0.73377189  0.98977130  0.46040915    -0.78500
C569        C  0.72182734  0.03171283  0.46698486     0.82300
N570        N  0.75132784  0.05937153  0.48729899    -0.78400
C571        C  0.79281754  0.04473777  0.49941439     0.82400
N572        N  0.80327017  0.00199210  0.49229703    -0.80100
C573        C  0.98707299  0.27491878  0.47711152     0.79800
N574        N  0.00383727  0.30815969  0.50218460    -0.78500
C575        C  0.00394577  0.30513328  0.54650762     0.82300
N576        N  0.98562211  0.26834923  0.56545676    -0.78400
C577        C  0.96864983  0.23468765  0.54054086     0.82400
N578        N  0.97002303  0.23839555  0.49643409    -0.80100
C579        C  0.97837725  0.23938476  0.79557006     0.79800
N580        N  0.01182597  0.26279653  0.77751418    -0.78500
C581        C  0.01072598  0.27408948  0.73453816     0.82300
N582        N  0.97445308  0.26246635  0.70958034    -0.78400
C583        C  0.93978893  0.24019932  0.72866310     0.82400
N584        N  0.94321416  0.22803438  0.77106055    -0.80100
C585        C  0.53190710  0.73102784  0.27803680     0.79800
N586        N  0.56475878  0.75048488  0.25462750    -0.78500
C587        C  0.56575479  0.74692774  0.21022186     0.82300
N588        N  0.53172469  0.72504903  0.18953044    -0.78400
C589        C  0.49798446  0.70632712  0.21298823     0.82400
N590        N  0.49923201  0.70876534  0.25711725    -0.80100
C591        C  0.77420025  0.00761813  0.24089956     0.79800
N592        N  0.74797037  0.04002763  0.25734672    -0.78500
C593        C  0.70369205  0.03535072  0.25742854     0.82300
N594        N  0.68608909  0.99725135  0.24028751    -0.78400
C595        C  0.71214599  0.96424838  0.22357737     0.82400
N596        N  0.75626544  0.96996370  0.22433125    -0.80100
C597        C  0.26409779  0.78284542  0.02770241     0.79800
N598        N  0.24768463  0.76542355  0.99014034    -0.78500
C599        C  0.25417237  0.72301598  0.97967489     0.82300
N600        N  0.27579289  0.69691955  0.00909934    -0.78400
C601        C  0.29082160  0.71353142  0.04855859     0.82400
N602        N  0.28575115  0.75710846  0.05722732    -0.80100
C603        C  0.73093732  0.28252369  0.47965197     0.79800
N604        N  0.74499167  0.26480903  0.51809376    -0.78500
C605        C  0.74113166  0.22138606  0.52628615     0.82300
N606        N  0.72194536  0.19528196  0.49474650    -0.78400
C607        C  0.70815250  0.21273471  0.45514466     0.82400
N608        N  0.71286670  0.25645835  0.44807189    -0.80100
C609        C  0.21996049  0.53341833  0.27343819     0.79800
N610        N  0.24756934  0.56147002  0.25217547    -0.78500
C611        C  0.29135810  0.55270849  0.25051003     0.82300
N612        N  0.30624269  0.51322171  0.26702955    -0.78400
C613        C  0.27832580  0.48529191  0.28858947     0.82400
N614        N  0.23590846  0.49677343  0.29283120    -0.80100
C615        C  0.22814355  0.46053375  0.00290615     0.79800
N616        N  0.19953889  0.48972298  0.98494183    -0.78500
C617        C  0.20579444  0.53349724  0.99026466     0.82300
N618        N  0.24303995  0.54767962  0.01176886    -0.78400
C619        C  0.27143288  0.51852165  0.03099183     0.82400
N620        N  0.26333717  0.47500819  0.02664607    -0.80100
C621        C  0.45405597  0.97056100  0.23808256     0.79800
N622        N  0.47942653  0.95497609  0.20546083    -0.78500
C623        C  0.52319646  0.96076402  0.20610122     0.82300
N624        N  0.54247191  0.98089461  0.24186731    -0.78400
C625        C  0.51664654  0.99599820  0.27595522     0.82400
N626        N  0.47233962  0.99139487  0.27311308    -0.80100
C627        C  0.49707945  0.26651864  0.22002002     0.79800
N628        N  0.46058556  0.28072204  0.24095380    -0.78500
C629        C  0.45054133  0.26689504  0.28168656     0.82300
N630        N  0.47978774  0.23997267  0.30309172    -0.78400
C631        C  0.51880091  0.22754682  0.28329862     0.82400
N632        N  0.52646232  0.24014584  0.24121158    -0.80100
C633        C  0.22818986  0.21507036  0.51131630     0.79800
N634        N  0.21183120  0.23812791  0.54512089    -0.78500
C635        C  0.21357793  0.28220138  0.54507799     0.82300
N636        N  0.23000404  0.30385524  0.50890226    -0.78400
C637        C  0.24524747  0.27982709  0.47366899     0.82400
N638        N  0.24535233  0.23566437  0.47610248    -0.80100
C639        C  0.01636122  0.75531868  0.03238881     0.79800
N640        N  0.03229422  0.72249704  0.00682871    -0.78500
C641        C  0.03654354  0.72816959  0.96307909     0.82300
N642        N  0.02410290  0.76757372  0.94470795    -0.78400
C643        C  0.00642231  0.80032637  0.97007772     0.82400
N644        N  0.00319003  0.79377160  0.01388323    -0.80100
C645        C  0.75537335  0.03457207  0.01043548     0.79800
N646        N  0.72062386  0.00937265  0.02159291    -0.78500
C647        C  0.71819813  0.96666722  0.00974752     0.82300
N648        N  0.75341179  0.94810192  0.98816403    -0.78400
C649        C  0.78921410  0.97387033  0.97715571     0.82400
N650        N  0.78923780  0.01698826  0.98768042    -0.80100
C651        C  0.03827349  0.01879388  0.73140488     0.79800
N652        N  0.01187627  0.03708769  0.70011849    -0.78500
C653        C  0.96771288  0.03972308  0.70697274     0.82300
N654        N  0.95058085  0.02404371  0.74606763    -0.78400
C655        C  0.97719485  0.00510765  0.77724265     0.82400
N656        N  0.02069775  0.00289068  0.76912639    -0.80100
C657        C  0.64492915  0.50296646  0.23369702    -0.02200
C658        C  0.66997940  0.46949332  0.25333084     0.07500
C659        C  0.64985654  0.43802717  0.28052583    -0.02300
C660        C  0.60401215  0.43963624  0.28722149    -0.02300
C661        C  0.57957439  0.47497718  0.26935354     0.07600
C662        C  0.60111473  0.50826366  0.24535242    -0.02500
Br663      Br  0.57211075  0.56327181  0.23117618    -0.01100
Br664      Br  0.67054767  0.54169027  0.19011723    -0.01200
Br665      Br  0.57574933  0.39343329  0.32030740    -0.01100
Br666      Br  0.68514584  0.39366259  0.30877687    -0.01100
C667        C  0.69738956  0.40142870  0.46731029    -0.02200
C668        C  0.73618260  0.42247933  0.48193780     0.07500
C669        C  0.77431615  0.39755496  0.49092162    -0.02300
C670        C  0.77330932  0.35177381  0.48650785    -0.02300
C671        C  0.73393645  0.33041734  0.47421909     0.07600
C672        C  0.69627460  0.35535565  0.46324302    -0.02500
Br673      Br  0.64220996  0.32700999  0.44492049    -0.01100
Br674      Br  0.64565340  0.43537028  0.45265422    -0.01200
Br675      Br  0.82649478  0.31843092  0.49737611    -0.01100
Br676      Br  0.82751994  0.42513705  0.51285381    -0.01100
C677        C  0.86433748  0.56001664  0.77121079    -0.02200
C678        C  0.84319027  0.52104287  0.75728011     0.07500
C679        C  0.86744017  0.48602359  0.73918605    -0.02300
C680        C  0.91313146  0.48791870  0.73914928    -0.02300
C681        C  0.93449169  0.52694122  0.75260595     0.07600
C682        C  0.91021360  0.56316116  0.76838090    -0.02500
Br683      Br  0.93922121  0.61733677  0.78549408    -0.01100
Br684      Br  0.83113211  0.60921243  0.79416635    -0.01200
Br685      Br  0.94542257  0.43504176  0.72383691    -0.01100
Br686      Br  0.83866813  0.43686133  0.71029500    -0.01100
C687        C  0.36813513  0.49238137  0.79374703    -0.02200
C688        C  0.34154882  0.48146121  0.75748563     0.07500
C689        C  0.36040203  0.46950806  0.71692685    -0.02300
C690        C  0.40626443  0.46725079  0.71308006    -0.02300
C691        C  0.43290715  0.47967929  0.74896511     0.07600
C692        C  0.41382069  0.49294455  0.78909430    -0.02500
Br693      Br  0.44942851  0.51533185  0.83693777    -0.01100
Br694      Br  0.34212820  0.50614247  0.85015565    -0.01200
Br695      Br  0.43216424  0.44602622  0.65907302    -0.01100
Br696      Br  0.32387223  0.45974911  0.66570272    -0.01100
C697        C  0.78795189  0.90563039  0.51505693    -0.02200
C698        C  0.77816285  0.92658258  0.47471490     0.07500
C699        C  0.75767282  0.90271898  0.44068055    -0.02300
C700        C  0.73976804  0.86142506  0.44932540    -0.02300
C701        C  0.74844827  0.84065746  0.48989999     0.07600
C702        C  0.77414496  0.86210441  0.52206322    -0.02500
Br703      Br  0.79172805  0.83203770  0.57520662    -0.01100
Br704      Br  0.81818022  0.93605956  0.56206355    -0.01200
Br705      Br  0.70109460  0.83478437  0.40595062    -0.01100
Br706      Br  0.75237109  0.92766753  0.38240114    -0.01100
C707        C  0.55756613  0.72967317  0.39955885    -0.02200
C708        C  0.51484980  0.73635092  0.41659474     0.07500
C709        C  0.47945249  0.74576807  0.38842208    -0.02300
C710        C  0.48659788  0.74840720  0.34321718    -0.02300
C711        C  0.52816822  0.73733098  0.32564222     0.07600
C712        C  0.56409137  0.72917329  0.35388494    -0.02500
Br713      Br  0.62200776  0.71668868  0.33079804    -0.01100
Br714      Br  0.60760836  0.72342395  0.43848679    -0.01200
Br715      Br  0.43990995  0.77065014  0.30607024    -0.01100
Br716      Br  0.42046397  0.75301689  0.41131034    -0.01100
C717        C  0.46017668  0.76356327  0.89398257    -0.02200
C718        C  0.48099169  0.72606966  0.91170154     0.07500
C719        C  0.48529618  0.68742595  0.88610396    -0.02300
C720        C  0.47095018  0.68732047  0.84254195    -0.02300
C721        C  0.45653510  0.72663761  0.82321459     0.07600
C722        C  0.44842971  0.76409347  0.84941919    -0.02500
Br723      Br  0.42434891  0.81734480  0.82446046    -0.01100
Br724      Br  0.44747061  0.81437379  0.93013689    -0.01200
Br725      Br  0.47365852  0.63399943  0.80777837    -0.01100
Br726      Br  0.51516487  0.63570739  0.90809313    -0.01100
C727        C  0.79663666  0.14680403  0.04132625    -0.02200
C728        C  0.75987796  0.17232399  0.02911285     0.07500
C729        C  0.71965877  0.15223705  0.01811286    -0.02300
C730        C  0.71789137  0.10681016  0.01222786    -0.02300
C731        C  0.75546083  0.08120348  0.02153979     0.07600
C732        C  0.79384704  0.10092382  0.03884365    -0.02500
Br733      Br  0.84320269  0.06564651  0.05802134    -0.01100
Br734      Br  0.85241469  0.17375528  0.05651316    -0.01200
Br735      Br  0.66580464  0.08169322  0.98537717    -0.01100
Br736      Br  0.66746468  0.18748035  0.00857578    -0.01100
C737        C  0.15167653  0.97331122  0.74450708    -0.02200
C738        C  0.17775730  0.01172807  0.74089239     0.07500
C739        C  0.15803289  0.05178801  0.72807003    -0.02300
C740        C  0.11217390  0.05396887  0.72163097    -0.02300
C741        C  0.08627893  0.01575471  0.72639598     0.07600
C742        C  0.10648031  0.97512116  0.73555747    -0.02500
Br743      Br  0.07190694  0.92148564  0.73542582    -0.01100
Br744      Br  0.17634400  0.91840990  0.76514276    -0.01200
Br745      Br  0.08497223  0.10972456  0.70830911    -0.01100
Br746      Br  0.19353304  0.10357473  0.71795734    -0.01100
C747        C  0.97679893  0.76474639  0.14891759    -0.02200
C748        C  0.01215197  0.74551602  0.17211526     0.07500
C749        C  0.04903757  0.72920001  0.14969967    -0.02300
C750        C  0.05066406  0.73194179  0.10368470    -0.02300
C751        C  0.01457319  0.75007743  0.08027217     0.07600
C752        C  0.97725245  0.76543104  0.10310498    -0.02500
Br753      Br  0.92501609  0.78516674  0.07229934    -0.01100
Br754      Br  0.92829303  0.79291815  0.17940596    -0.01200
Br755      Br  0.10336946  0.71214320  0.07404537    -0.01100
Br756      Br  0.09682491  0.70250313  0.18207998    -0.01100
C757        C  0.25181054  0.64638188  0.47399114    -0.02200
C758        C  0.24488009  0.67134380  0.51266884     0.07500
C759        C  0.24376231  0.64973580  0.55394595    -0.02300
C760        C  0.24937474  0.60391383  0.55619730    -0.02300
C761        C  0.25445917  0.57914026  0.51734066     0.07600
C762        C  0.25461087  0.60031329  0.47624799    -0.02500
Br763      Br  0.25448014  0.56609653  0.42264802    -0.01100
Br764      Br  0.26100819  0.67459898  0.41786113    -0.01200
Br765      Br  0.25011342  0.57501414  0.61290150    -0.01100
Br766      Br  0.23280011  0.68163838  0.60800135    -0.01100
C767        C  0.21571445  0.09995893  0.47396475    -0.02200
C768        C  0.23357487  0.07772064  0.51035962     0.07500
C769        C  0.24640528  0.10002845  0.54871958    -0.02300
C770        C  0.24480710  0.14571284  0.54934961    -0.02300
C771        C  0.22734764  0.16797410  0.51267863     0.07600
C772        C  0.21061710  0.14519337  0.47612916    -0.02500
Br773      Br  0.17903769  0.17544083  0.42987794    -0.01100
Br774      Br  0.20095539  0.06963098  0.41984304    -0.01200
Br775      Br  0.26887737  0.17690757  0.59939729    -0.01100
Br776      Br  0.26477675  0.06817162  0.60067960    -0.01100
C777        C  0.96036631  0.71207772  0.60643507    -0.02200
C778        C  0.99477822  0.72812093  0.57958959     0.07500
C779        C  0.03438307  0.74296622  0.59862242    -0.02300
C780        C  0.03737885  0.74772162  0.64414931    -0.02300
C781        C  0.00207813  0.73392664  0.67117680     0.07600
C782        C  0.96433584  0.71461320  0.65236528    -0.02500
Br783      Br  0.91787338  0.69205197  0.68924443    -0.01100
Br784      Br  0.90652923  0.68916074  0.58123622    -0.01200
Br785      Br  0.08838401  0.77789247  0.66803780    -0.01100
Br786      Br  0.08489954  0.75723315  0.56229444    -0.01100
C787        C  0.02875500  0.29161770  0.40848697    -0.02200
C788        C  0.98962311  0.27688416  0.42893438     0.07500
C789        C  0.95410173  0.26117225  0.40303574    -0.02300
C790        C  0.95835316  0.25885049  0.35726901    -0.02300
C791        C  0.99701057  0.27418596  0.33715865     0.07600
C792        C  0.03187729  0.29139387  0.36261766    -0.02500
Br793      Br  0.08426739  0.31521261  0.33503038    -0.01100
Br794      Br  0.08026804  0.30844156  0.44227705    -0.01200
Br795      Br  0.91261649  0.23129773  0.32245035    -0.01100
Br796      Br  0.89895896  0.24293241  0.42912885    -0.01100
C797        C  0.02462412  0.20502825  0.90426310    -0.02200
C798        C  0.99037518  0.21916008  0.93228712     0.07500
C799        C  0.94879531  0.22957457  0.91487559    -0.02300
C800        C  0.94390821  0.23488600  0.86954529    -0.02300
C801        C  0.98004502  0.22631429  0.84168594     0.07600
C802        C  0.01868610  0.20725083  0.85867025    -0.02500
Br803      Br  0.06328306  0.18421056  0.81954862    -0.01100
Br804      Br  0.08124503  0.18719101  0.92704317    -0.01200
Br805      Br  0.88919823  0.25857737  0.84728742    -0.01100
Br806      Br  0.89909115  0.23841449  0.95354628    -0.01100
C807        C  0.38581749  0.93816950  0.26736993    -0.02200
C808        C  0.40696823  0.96355690  0.23522520     0.07500
C809        C  0.38365295  0.97954460  0.19863195    -0.02300
C810        C  0.33798506  0.97464538  0.19710068    -0.02300
C811        C  0.31572895  0.95571634  0.23311025     0.07600
C812        C  0.33994184  0.93399537  0.26647431    -0.02500
Br813      Br  0.31200789  0.90040543  0.31264507    -0.01100
Br814      Br  0.42000822  0.90901581  0.31240084    -0.01200
Br815      Br  0.30594802  0.99522719  0.14616410    -0.01100
Br816      Br  0.41341277  0.01120478  0.15215954    -0.01100
C817        C  0.23535198  0.89801494  0.06357039    -0.02200
C818        C  0.24686615  0.92081678  0.02468743     0.07500
C819        C  0.26495091  0.89788956  0.98878994    -0.02300
C820        C  0.27727444  0.85426468  0.99373830    -0.02300
C821        C  0.26357756  0.83067058  0.03106015     0.07600
C822        C  0.24245665  0.85232875  0.06604547    -0.02500
Br823      Br  0.22332655  0.81956758  0.11680765    -0.01100
Br824      Br  0.21065680  0.92833733  0.11357784    -0.01200
Br825      Br  0.31551924  0.82782778  0.95019339    -0.01100
Br826      Br  0.27103413  0.92532779  0.93162702    -0.01100
C827        C  0.26842794  0.35142823  0.96116179    -0.02200
C828        C  0.23399410  0.32356879  0.97522575     0.07500
C829        C  0.19384933  0.34198950  0.99001113    -0.02300
C830        C  0.19038656  0.38764094  0.99623870    -0.02300
C831        C  0.22729705  0.41447661  0.98849833     0.07600
C832        C  0.26490002  0.39689055  0.96773634    -0.02500
Br833      Br  0.31212523  0.43505390  0.94842756    -0.01100
Br834      Br  0.32278936  0.32826006  0.93748033    -0.01200
Br835      Br  0.13617766  0.41279899  0.01773062    -0.01100
Br836      Br  0.14435781  0.30450699  0.00435604    -0.01100
C837        C  0.89264355  0.00644386  0.20306430    -0.02200
C838        C  0.91434042  0.01999192  0.24166942     0.07500
C839        C  0.88975257  0.03259465  0.27901722    -0.02300
C840        C  0.84400029  0.02699172  0.27938274    -0.02300
C841        C  0.82218648  0.01331753  0.24078862     0.07600
C842        C  0.84647848  0.00450578  0.20219873    -0.02500
Br843      Br  0.81685274  0.99007047  0.14782082    -0.01100
Br844      Br  0.92576732  0.98735124  0.15238615    -0.01200
Br845      Br  0.81252729  0.03356624  0.33432099    -0.01100
Br846      Br  0.91832262  0.05879768  0.32964205    -0.01100
C847        C  0.60782784  0.92922603  0.74193530    -0.02200
C848        C  0.59030445  0.96761934  0.76146016     0.07500
C849        C  0.61829451  0.00193939  0.77529322    -0.02300
C850        C  0.66340260  0.99832851  0.76798832    -0.02300
C851        C  0.67975207  0.96297868  0.74269072     0.07600
C852        C  0.65245712  0.92782039  0.73063449    -0.02500
Br853      Br  0.67553770  0.87957108  0.69648368    -0.01100
Br854      Br  0.57101565  0.87841377  0.73128332    -0.01200
Br855      Br  0.70261682  0.04199952  0.79328809    -0.01100
Br856      Br  0.59572646  0.05624333  0.79980683    -0.01100
C857        C  0.53544010  0.22230830  0.64840604    -0.02200
C858        C  0.50011273  0.23736083  0.67456470     0.07500
C859        C  0.46175109  0.25419542  0.65503153    -0.02300
C860        C  0.45803109  0.25469997  0.60918547    -0.02300
C861        C  0.49429310  0.24200178  0.58303993     0.07600
C862        C  0.53337586  0.22669446  0.60280446    -0.02500
Br863      Br  0.58501576  0.21279448  0.56800881    -0.01100
Br864      Br  0.58585692  0.19291792  0.67418642    -0.01200
Br865      Br  0.40187150  0.26931934  0.58318141    -0.01100
Br866      Br  0.41502107  0.27834037  0.69074476    -0.01100
C867        C  0.46634416  0.26586167  0.10010026    -0.02200
C868        C  0.50771118  0.27330008  0.08080808     0.07500
C869        C  0.54440828  0.28435103  0.10714479    -0.02300
C870        C  0.53974824  0.28635133  0.15298741    -0.02300
C871        C  0.49987262  0.27309625  0.17240932     0.07600
C872        C  0.46272701  0.26356187  0.14577883    -0.02500
Br873      Br  0.40756335  0.24259688  0.17012031    -0.01100
Br874      Br  0.41450275  0.25775611  0.06376495    -0.01200
Br875      Br  0.58741021  0.30814034  0.18905878    -0.01100
Br876      Br  0.60210577  0.29187268  0.08160793    -0.01100
C877        C  0.10073852  0.56802834  0.27556990    -0.02200
C878        C  0.08087839  0.52704993  0.26591939     0.07500
C879        C  0.10677495  0.49045668  0.25476794    -0.02300
C880        C  0.15215404  0.49520837  0.25139271    -0.02300
C881        C  0.17249383  0.53447366  0.26587417     0.07600
C882        C  0.14689849  0.57140116  0.27673662    -0.02500
Br883      Br  0.17477291  0.62622813  0.29253700    -0.01100
Br884      Br  0.06524850  0.61983384  0.28507933    -0.01200
Br885      Br  0.18562286  0.44871488  0.22330614    -0.01100
Br886      Br  0.08068062  0.43283224  0.24620447    -0.01100
C887        C  0.71036319  0.65388565  0.98932890    -0.02200
C888        C  0.75075088  0.67359422  0.97652837     0.07500
C889        C  0.78477079  0.64722735  0.95891686    -0.02300
C890        C  0.78012320  0.60147331  0.95869397    -0.02300
C891        C  0.74237840  0.58191557  0.97724344     0.07600
C892        C  0.70607302  0.60788479  0.98907739    -0.02500
Br893      Br  0.65102638  0.58069305  0.00574767    -0.01100
Br894      Br  0.66060720  0.68911436  0.00768394    -0.01200
Br895      Br  0.82563358  0.56536902  0.93234464    -0.01100
Br896      Br  0.83992093  0.67197285  0.93869989    -0.01100
loop_ 
_geom_bond_atom_site_label_1 
_geom_bond_atom_site_label_2 
_geom_bond_distance 
_geom_bond_site_symmetry_2 
_ccdc_geom_bond_type 
O1           C17   1.277       .  A
O1           Zn7   2.048       .  S
C2           O18   1.279       .  A
C2           O15   1.277       .  A
C2          C301   1.489       .  S
O3           C16   1.295       .  A
O3          Cd10   2.209       .  S
O4           C22   1.259       .  A
O4          Cd13   1.996       .  S
O5           C19   1.276       .  A
O5           Cd9   2.081       .  S
O6           C17   1.281       .  A
O6           Cd9   2.098       .  S
Zn7          O18   2.047       .  S
Zn7          O20   1.880       .  S
Zn7          O12   1.943       .  S
O8           C19   1.281       .  A
O8          Cd13   2.083       .  S
Cd9          O11   1.976       .  S
Cd9          O12   1.984       .  S
Cd10         O14   2.212       .  S
Cd10         O23   2.202       .  S
Cd10         O12   2.038       .  S
O11          C21   1.257       .  A
O12         Cd13   1.973       .  S
Cd13         O15   2.088       .  S
O14          C21   1.296       .  A
C16          O20   1.252       .  A
C16         C297   1.482       .  S
C17         C291   1.494       .  S
C19         C315   1.479       .  S
C21         C307   1.486       .  S
C22          O23   1.293       .  A
C22         C321   1.489       .  S
O24          C40   1.274       .  A
O24         Zn30   2.022       .  S
C25          O41   1.279       .  A
C25          O38   1.273       .  A
C25         C271   1.483       .  S
O26          C39   1.293       .  A
O26         Cd33   2.199       .  S
O27          C45   1.257       .  A
O27         Cd36   1.973       .  S
O28          C42   1.272       .  A
O28         Cd32   2.081       .  S
O29          C40   1.280       .  A
O29         Cd32   2.073       .  S
Zn30         O41   2.031       .  S
Zn30         O43   1.886       .  S
Zn30         O35   1.918       .  S
O31          C42   1.280       .  A
O31         Cd36   2.063       .  S
Cd32         O34   1.964       .  S
Cd32         O35   1.972       .  S
Cd33         O37   2.197       .  S
Cd33         O46   2.178       .  S
Cd33         O35   2.025       .  S
O34          C44   1.256       .  A
O35         Cd36   1.966       .  S
Cd36         O38   2.069       .  S
O37          C44   1.293       .  A
C39          O43   1.252       .  A
C39          C78   1.481       .  S
C40         C327   1.482       .  S
C42         C303   1.478       .  S
C44         C319   1.476       .  S
C45          O46   1.290       .  A
C45         C253   1.475       .  S
O47          C63   1.277       .  A
O47         Zn53   2.029       .  S
C48          O64   1.279       .  A
C48          O61   1.278       .  A
C48          C74   1.491       .  S
O49          C62   1.289       .  A
O49         Cd56   2.186       .  S
O50          C68   1.255       .  A
O50         Cd59   1.962       .  S
O51          C65   1.279       .  A
O51         Cd55   2.110       .  S
O52          C63   1.284       .  A
O52         Cd55   2.102       .  S
Zn53         O64   2.052       .  S
Zn53         O66   1.915       .  S
Zn53         O58   1.933       .  S
O54          C65   1.283       .  A
O54         Cd59   2.108       .  S
Cd55         O57   1.990       .  S
Cd55         O58   1.988       .  S
Cd56         O60   2.193       .  S
Cd56         O69   2.174       .  S
Cd56         O58   2.037       .  S
O57          C67   1.259       .  A
O58         Cd59   1.982       .  S
Cd59         O61   2.092       .  S
O60          C67   1.293       .  A
C62          O66   1.256       .  A
C62         C325   1.483       .  S
C63          C80   1.488       .  S
C65         C174   1.505   1_655  S
C67         C180   1.483       .  S
C68          O69   1.291       .  A
C68         C285   1.471       .  S
C70         C891   1.462       .  S
C70          N71   1.358       .  A
C70          N75   1.358   1_556  A
N71          C72   1.354       .  A
C72         C103   1.478       .  S
C72          N73   1.377       .  A
N73          C74   1.368   1_556  A
C74          N75   1.347       .  A
C76         C878   1.456       .  S
C76          N77   1.358       .  A
C76          N81   1.355       .  A
N77          C78   1.354   1_455  A
C78          N79   1.378       .  A
N79          C80   1.370       .  A
C80          N81   1.344   1_655  A
O82          C98   1.276       .  A
O82         Zn88   2.030       .  S
C83          O99   1.281       .  A
C83          O96   1.276       .  A
C83         C283   1.489       .  S
O84          C97   1.294       .  A
O84         Cd91   2.198       .  S
O85         C103   1.255       .  A
O85         Cd94   1.964       .  S
O86         C100   1.279       .  A
O86         Cd90   2.114       .  S
O87          C98   1.286       .  A
O87         Cd90   2.102       .  S
Zn88         O99   2.057       .  S
Zn88        O101   1.912       .  S
Zn88         O93   1.930       .  S
O89         C100   1.279       .  A
O89         Cd94   2.080       .  S
Cd90         O92   1.985       .  S
Cd90         O93   1.981       .  S
Cd91         O95   2.207       .  S
Cd91        O104   2.192       .  S
Cd91         O93   2.027       .  S
O92         C102   1.256       .  A
O93         Cd94   1.978       .  S
Cd94         O96   2.078       .  S
O95         C102   1.294       .  A
C97         O101   1.257       .  A
C97         C132   1.483       .  S
C98         C136   1.492       .  S
C100        C313   1.494       .  S
C102        C309   1.487       .  S
C103        O104   1.293       .  A
O105        C121   1.280       .  A
O105       Zn111   2.073       .  S
C106        O122   1.283       .  A
C106        O119   1.278       .  A
C106        C142   1.493       .  S
O107        C120   1.298       .  A
O107       Cd114   2.224       .  S
O108        C126   1.261       .  A
O108       Cd117   2.007       .  S
O109        C123   1.276       .  A
O109       Cd113   2.085       .  S
O110        C121   1.280       .  A
O110       Cd113   2.090       .  S
Zn111       O122   2.061       .  S
Zn111       O124   1.911       .  S
Zn111       O116   1.949       .  S
O112        C123   1.284       .  A
O112       Cd117   2.110       .  S
Cd113       O115   1.978       .  S
Cd113       O116   1.995       .  S
Cd114       O118   2.232       .  S
Cd114       O127   2.231       .  S
Cd114       O116   2.034       .  S
O115        C125   1.257       .  A
O116       Cd117   1.994       .  S
Cd117       O119   2.099       .  S
O118        C125   1.300       .  A
C120        O124   1.255       .  A
C120        C138   1.494       .  S
C121        C130   1.499       .  S
C123        C162   1.491   1_556  S
C125        C156   1.497       .  S
C126        O127   1.298       .  A
C126        C277   1.502       .  S
C128        C868   1.461       .  S
C128        N129   1.357       .  A
C128        N133   1.356       .  A
N129        C130   1.350   1_554  A
C130        N131   1.373       .  A
N131        C132   1.381       .  A
C132        N133   1.352   1_556  A
C134        C858   1.456       .  S
C134        N135   1.349       .  A
C134        N139   1.359       .  A
N135        C136   1.343       .  A
C136        N137   1.377       .  A
N137        C138   1.384       .  A
C138        N139   1.354       .  A
C140        C848   1.455       .  S
C140        N141   1.351       .  A
C140        N145   1.348       .  A
N141        C142   1.351   1_565  A
C142        N143   1.385   1_545  A
N143        C144   1.382       .  A
C144        C206   1.493       .  S
C144        N145   1.345       .  A
C146        C838   1.467       .  S
C146        N147   1.361       .  A
C146        N151   1.354   1_545  A
N147        C148   1.357   1_655  A
C148        C202   1.489       .  S
C148        N149   1.380       .  A
N149        C150   1.373   1_545  A
C150        C244   1.493       .  S
C150        N151   1.347   1_455  A
C152        C828   1.470       .  S
C152        N153   1.355   1_556  A
C152        N157   1.361       .  A
N153        C154   1.348       .  A
C154        C183   1.501       .  S
C154        N155   1.373       .  A
N155        C156   1.385   1_554  A
C156        N157   1.356       .  A
C158        C818   1.462       .  S
C158        N159   1.358       .  A
C158        N163   1.354       .  A
N159        C160   1.356   1_565  A
C160        C203   1.482       .  S
C160        N161   1.381       .  A
N161        C162   1.371       .  A
C162        N163   1.341   1_545  A
C164        C811   1.465       .  S
C164        N165   1.353       .  A
C164        N169   1.357   1_565  A
N165        C166   1.349       .  A
C166        C243   1.486       .  S
C166        N167   1.383   1_565  A
N167        C168   1.374       .  A
C168        C200   1.502       .  S
C168        N169   1.349       .  A
C170        C798   1.461   1_455  S
C170        N171   1.354   1_556  A
C170        N175   1.359   1_455  A
N171        C172   1.350       .  A
C172        C197   1.486       .  S
C172        N173   1.382       .  A
N173        C174   1.374       .  A
C174        N175   1.351   1_454  A
C176        C791   1.458   1_455  S
C176        N177   1.352       .  A
C176        N181   1.358   1_455  A
N177        C178   1.346       .  A
C178        C198   1.486       .  S
C178        N179   1.372       .  A
N179        C180   1.377   1_455  A
C180        N181   1.353       .  A
O182        C198   1.277       .  A
O182       Zn188   2.028       .  S
C183        O199   1.281       .  A
C183        O196   1.279       .  A
O184        C197   1.293       .  A
O184       Cd191   2.195       .  S
O185        C203   1.255       .  A
O185       Cd194   1.966       .  S
O186        C200   1.278       .  A
O186       Cd190   2.102       .  S
O187        C198   1.282       .  A
O187       Cd190   2.091       .  S
Zn188       O199   2.047       .  S
Zn188       O201   1.918       .  S
Zn188       O193   1.931       .  S
O189        C200   1.285       .  A
O189       Cd194   2.110       .  S
Cd190       O192   1.987       .  S
Cd190       O193   1.986       .  S
Cd191       O195   2.209       .  S
Cd191       O204   2.204       .  S
Cd191       O193   2.034       .  S
O192        C202   1.258       .  A
O193       Cd194   1.991       .  S
Cd194       O196   2.112       .  S
O195        C202   1.295       .  A
C197        O201   1.255       .  A
C203        O204   1.294       .  A
O205        C221   1.277       .  A
O205       Zn211   2.045       .  S
C206        O222   1.279       .  A
C206        O219   1.278       .  A
O207        C220   1.292       .  A
O207       Cd214   2.188       .  S
O208        C226   1.258       .  A
O208       Cd217   1.992       .  S
O209        C223   1.273       .  A
O209       Cd213   2.064       .  S
O210        C221   1.279       .  A
O210       Cd213   2.093       .  S
Zn211       O222   2.032       .  S
Zn211       O224   1.883       .  S
Zn211       O216   1.915       .  S
O212        C223   1.285       .  A
O212       Cd217   2.088       .  S
Cd213       O215   1.990       .  S
Cd213       O216   1.988       .  S
Cd214       O218   2.206       .  S
Cd214       O227   2.206       .  S
Cd214       O216   2.026       .  S
O215        C225   1.260       .  A
O216       Cd217   1.986       .  S
Cd217       O219   2.108       .  S
O218        C225   1.295       .  A
C220        O224   1.253       .  A
C220        C289   1.477       .  S
C221        C295   1.490       .  S
C223        C259   1.479       .  S
C225        C265   1.485       .  S
C226        O227   1.294       .  A
C226        C279   1.488       .  S
O228        C244   1.278       .  A
O228       Zn234   2.052       .  S
C229        O245   1.281       .  A
C229        O242   1.274       .  A
C229        C261   1.472       .  S
O230        C243   1.293       .  A
O230       Cd237   2.194       .  S
O231        C249   1.262       .  A
O231       Cd240   2.013       .  S
O232        C246   1.277       .  A
O232       Cd236   2.087       .  S
O233        C244   1.280       .  A
O233       Cd236   2.096       .  S
Zn234       O245   2.020       .  S
Zn234       O247   1.908       .  S
Zn234       O239   1.928       .  S
O235        C246   1.281       .  A
O235       Cd240   2.084       .  S
Cd236       O238   1.976       .  S
Cd236       O239   1.973       .  S
Cd237       O241   2.202       .  S
Cd237       O250   2.224       .  S
Cd237       O239   2.016       .  S
O238        C248   1.259       .  A
O239       Cd240   1.992       .  S
Cd240       O242   2.081       .  S
O241        C248   1.296       .  A
C243        O247   1.254       .  A
C246        C255   1.488   1_455  S
C248        C273   1.481       .  S
C249        O250   1.296       .  A
C249        C267   1.500       .  S
C251        C778   1.464       .  S
C251        N252   1.356       .  A
C251        N256   1.357       .  A
N252        C253   1.352       .  A
C253        N254   1.376       .  A
N254        C255   1.367       .  A
C255        N256   1.348       .  A
C257        C768   1.429       .  S
C257        N258   1.345       .  A
C257        N262   1.339       .  A
N258        C259   1.345   1_545  A
C259        N260   1.382       .  A
N260        C261   1.380       .  A
C261        N262   1.338   1_565  A
C263        C758   1.482       .  S
C263        N264   1.356       .  A
C263        N268   1.364       .  A
N264        C265   1.349       .  A
C265        N266   1.377       .  A
N266        C267   1.377       .  A
C267        N268   1.359       .  A
C269        C748   1.457       .  S
C269        N270   1.351   1_455  A
C269        N274   1.359       .  A
N270        C271   1.343       .  A
C271        N272   1.369       .  A
N272        C273   1.378   1_655  A
C273        N274   1.355       .  A
C275        C738   1.475       .  S
C275        N276   1.367       .  A
C275        N280   1.357   1_545  A
N276        C277   1.360       .  A
C277        N278   1.377       .  A
N278        C279   1.375   1_545  A
C279        N280   1.347       .  A
C281        C728   1.452       .  S
C281        N282   1.357   1_554  A
C281        N286   1.353       .  A
N282        C283   1.347       .  A
C283        N284   1.368       .  A
N284        C285   1.377   1_556  A
C285        N286   1.348       .  A
C287        C721   1.458       .  S
C287        N288   1.355       .  A
C287        N292   1.356       .  A
N288        C289   1.351       .  A
C289        N290   1.380       .  A
N290        C291   1.368       .  A
C291        N292   1.345       .  A
C293        C708   1.458       .  S
C293        N294   1.356       .  A
C293        N298   1.358       .  A
N294        C295   1.348       .  A
C295        N296   1.371       .  A
N296        C297   1.379       .  A
C297        N298   1.352       .  A
C299        C701   1.459       .  S
C299        N300   1.357       .  A
C299        N304   1.340       .  A
N300        C301   1.360       .  A
C301        N302   1.382       .  A
N302        C303   1.375       .  A
C303        N304   1.336       .  A
C305        C691   1.456       .  S
C305        N306   1.359       .  A
C305        N310   1.357       .  A
N306        C307   1.351       .  A
C307        N308   1.377       .  A
N308        C309   1.375       .  A
C309        N310   1.347       .  A
C311        C678   1.451       .  S
C311        N312   1.351       .  A
C311        N316   1.344       .  A
N312        C313   1.349       .  A
C313        N314   1.380       .  A
N314        C315   1.382       .  A
C315        N316   1.345       .  A
C317        C668   1.468       .  S
C317        N318   1.358       .  A
C317        N322   1.364       .  A
N318        C319   1.348       .  A
C319        N320   1.370       .  A
N320        C321   1.373       .  A
C321        N322   1.356       .  A
C323        C658   1.453       .  S
C323        N324   1.361       .  A
C323        N328   1.352       .  A
N324        C325   1.359       .  A
C325        N326   1.377       .  A
N326        C327   1.366       .  A
C327        N328   1.341       .  A
O329        C345   1.286       .  A
O329       Zn335   2.101       .  S
C330        O346   1.278       .  A
C330        O343   1.278       .  A
C330        C565   1.490       .  S
O331        C344   1.294       .  A
O331       Cd338   2.194       .  S
O332        C350   1.262       .  A
O332       Cd341   2.003       .  S
O333        C347   1.280       .  A
O333       Cd337   2.069       .  S
O334        C345   1.276       .  A
O334       Cd337   2.079       .  S
Zn335       O346   2.072       .  S
Zn335       O348   1.898       .  S
Zn335       O340   1.914       .  S
O336        C347   1.270       .  A
O336       Cd341   2.063       .  S
Cd337       O339   1.966       .  S
Cd337       O340   1.969       .  S
Cd338       O342   2.227       .  S
Cd338       O351   2.205       .  S
Cd338       O340   2.015       .  S
O339        C349   1.255       .  A
O340       Cd341   1.976       .  S
Cd341       O343   2.058       .  S
O342        C349   1.297       .  A
C344        O348   1.259       .  A
C344        C557   1.476       .  S
C345        C581   1.496       .  S
C347        C635   1.467       .  S
C349        C575   1.492       .  S
C350        O351   1.293       .  A
C350        C441   1.489       .  S
O352        C368   1.283       .  A
O352       Zn358   2.053       .  S
C353        O369   1.277       .  A
C353        O366   1.282       .  A
C353        C569   1.501       .  S
O354        C367   1.296       .  A
O354       Cd361   2.215       .  S
O355        C373   1.254       .  A
O355       Cd364   1.968       .  S
O356        C370   1.283       .  A
O356       Cd360   2.110       .  S
O357        C368   1.277       .  A
O357       Cd360   2.093       .  S
Zn358       O369   2.064       .  S
Zn358       O371   1.900       .  S
Zn358       O363   1.942       .  S
O359        C370   1.279       .  A
O359       Cd364   2.095       .  S
Cd360       O362   1.996       .  S
Cd360       O363   1.992       .  S
Cd361       O365   2.226       .  S
Cd361       O374   2.238       .  S
Cd361       O363   2.036       .  S
O362        C372   1.260       .  A
O363       Cd364   1.986       .  S
Cd364       O366   2.102       .  S
O365        C372   1.299       .  A
C367        O371   1.255       .  A
C367        C607   1.490       .  S
C368        C379   1.493       .  S
C370        C625   1.493   1_545  S
C372        C631   1.498       .  S
C373        O374   1.299       .  A
C373        C593   1.495       .  S
C375        C861   1.460       .  S
C375        N376   1.358       .  A
C375        N380   1.354       .  A
N376        C377   1.352       .  A
C377        C401   1.488       .  S
C377        N378   1.381       .  A
N378        C379   1.373       .  A
C379        N380   1.346       .  A
O381        C397   1.280       .  A
O381       Zn387   2.040       .  S
C382        O398   1.276       .  A
C382        O395   1.277       .  A
C382        C613   1.487       .  S
O383        C396   1.294       .  A
O383       Cd390   2.217       .  S
O384        C402   1.254       .  A
O384       Cd393   1.966       .  S
O385        C399   1.282       .  A
O385       Cd389   2.080       .  S
O386        C397   1.274       .  A
O386       Cd389   2.088       .  S
Zn387       O398   2.044       .  S
Zn387       O400   1.851       .  S
Zn387       O392   1.917       .  S
O388        C399   1.274       .  A
O388       Cd393   2.064       .  S
Cd389       O391   1.976       .  S
Cd389       O392   1.978       .  S
Cd390       O394   2.214       .  S
Cd390       O403   2.243       .  S
Cd390       O392   2.042       .  S
O391        C401   1.257       .  A
O392       Cd393   1.976       .  S
Cd393       O395   2.077       .  S
O394        C401   1.296       .  A
C396        O400   1.248       .  A
C396        C408   1.483       .  S
C397        C629   1.493       .  S
C399        C637   1.475       .  S
C402        O403   1.299       .  A
C402        C443   1.496       .  S
C404        C661   1.463       .  S
C404        N405   1.355       .  A
C404        N409   1.360       .  A
N405        C406   1.341       .  A
C406        C417   1.493       .  S
C406        N407   1.368       .  A
N407        C408   1.382       .  A
C408        N409   1.356       .  A
C410        C718   1.463       .  S
C410        N411   1.345       .  A
C410        N415   1.358       .  A
N411        C412   1.343   1_556  A
C412        C434   1.486       .  S
C412        N413   1.378       .  A
N413        C414   1.382       .  A
C414        C446   1.497       .  S
C414        N415   1.357   1_554  A
O416        C432   1.281       .  A
O416       Zn422   2.085       .  S
C417        O433   1.277       .  A
C417        O430   1.285       .  A
O418        C431   1.294       .  A
O418       Cd425   2.201       .  S
O419        C437   1.261       .  A
O419       Cd428   2.006       .  S
O420        C434   1.279       .  A
O420       Cd424   2.064       .  S
O421        C432   1.275       .  A
O421       Cd424   2.082       .  S
Zn422       O433   2.042       .  S
Zn422       O435   1.884       .  S
Zn422       O427   1.935       .  S
O423        C434   1.276       .  A
O423       Cd428   2.100       .  S
Cd424       O426   1.968       .  S
Cd424       O427   1.972       .  S
Cd425       O429   2.207       .  S
Cd425       O438   2.210       .  S
Cd425       O427   2.037       .  S
O426        C436   1.256       .  A
O427       Cd428   1.993       .  S
Cd428       O430   2.102       .  S
O429        C436   1.293       .  A
C431        O435   1.255       .  A
C431        C611   1.478       .  S
C432        C619   1.495       .  S
C436        C601   1.488       .  S
C437        O438   1.296       .  A
C437        C589   1.491       .  S
C439        C761   1.470       .  S
C439        N440   1.357       .  A
C439        N444   1.365       .  A
N440        C441   1.348       .  A
C441        N442   1.374       .  A
N442        C443   1.379       .  A
C443        N444   1.359       .  A
O445        C461   1.279       .  A
O445       Zn451   2.035       .  S
C446        O462   1.276       .  A
C446        O459   1.283       .  A
O447        C460   1.297       .  A
O447       Cd454   2.224       .  S
O448        C466   1.260       .  A
O448       Cd457   1.975       .  S
O449        C463   1.279       .  A
O449       Cd453   2.061       .  S
O450        C461   1.272       .  A
O450       Cd453   2.067       .  S
Zn451       O462   2.045       .  S
Zn451       O464   1.885       .  S
Zn451       O456   1.918       .  S
O452        C463   1.278       .  A
O452       Cd457   2.113       .  S
Cd453       O455   1.976       .  S
Cd453       O456   1.984       .  S
Cd454       O458   2.233       .  S
Cd454       O467   2.225       .  S
Cd454       O456   2.037       .  S
O455        C465   1.255       .  A
O456       Cd457   1.991       .  S
Cd457       O459   2.120       .  S
O458        C465   1.297       .  A
C460        O464   1.253       .  A
C460        C587   1.488       .  S
C461        C623   1.475       .  S
C463        C647   1.489       .  S
C465        C595   1.495       .  S
C466        O467   1.298       .  A
C466        C472   1.488       .  S
C468        C888   1.472       .  S
C468        N469   1.360       .  A
C468        N473   1.359   1_556  A
N469        C470   1.351       .  A
C470        C523   1.495       .  S
C470        N471   1.379   1_556  A
N471        C472   1.375       .  A
C472        N473   1.352       .  A
O474        C490   1.281       .  A
O474       Zn480   2.021       .  S
C475        O491   1.275       .  A
C475        O488   1.281       .  A
C475        C501   1.494       .  S
O476        C489   1.297       .  A
O476       Cd483   2.234       .  S
O477        C495   1.253       .  A
O477       Cd486   1.953       .  S
O478        C492   1.285       .  A
O478       Cd482   2.118       .  S
O479        C490   1.276       .  A
O479       Cd482   2.099       .  S
Zn480       O491   2.039       .  S
Zn480       O493   1.910       .  S
Zn480       O485   1.930       .  S
O481        C492   1.280       .  A
O481       Cd486   2.106       .  S
Cd482       O484   1.986       .  S
Cd482       O485   1.987       .  S
Cd483       O487   2.210       .  S
Cd483       O496   2.240       .  S
Cd483       O485   2.037       .  S
O484        C494   1.259       .  A
O485       Cd486   1.989       .  S
Cd486       O488   2.104       .  S
O487        C494   1.295       .  A
C489        O493   1.255       .  A
C489        C653   1.501       .  S
C490        C583   1.490       .  S
C492        C605   1.503       .  S
C494        C577   1.487       .  S
C495        O496   1.301       .  A
C495        C571   1.492       .  S
C497        C851   1.448       .  S
C497        N498   1.354       .  A
C497        N502   1.353   1_565  A
N498        C499   1.350       .  A
C499        C518   1.483       .  S
C499        N500   1.381       .  A
N500        C501   1.374   1_565  A
C501        N502   1.345       .  A
O503        C519   1.280       .  A
O503       Zn509   2.057       .  S
C504        O520   1.279       .  A
C504        O517   1.285       .  A
C504        C655   1.502   1_565  S
O505        C518   1.293       .  A
O505       Cd512   2.197       .  S
O506        C524   1.262       .  A
O506       Cd515   2.002       .  S
O507        C521   1.279       .  A
O507       Cd511   2.086       .  S
O508        C519   1.276       .  A
O508       Cd511   2.070       .  S
Zn509       O520   2.056       .  S
Zn509       O522   1.909       .  S
Zn509       O514   1.942       .  S
O510        C521   1.280       .  A
O510       Cd515   2.109       .  S
Cd511       O513   1.988       .  S
Cd511       O514   1.994       .  S
Cd512       O516   2.222       .  S
Cd512       O525   2.204       .  S
Cd512       O514   2.034       .  S
O513        C523   1.257       .  A
O514       Cd515   1.984       .  S
Cd515       O517   2.116       .  S
O516        C523   1.297       .  A
C518        O522   1.255       .  A
C519        C649   1.480       .  S
C521        C643   1.493   1_655  S
C524        O525   1.295       .  A
C524        C551   1.490       .  S
O526        C542   1.279       .  A
O526       Zn532   2.027       .  S
C527        O543   1.275       .  A
C527        O540   1.279       .  A
C527        C563   1.481       .  S
O528        C541   1.290       .  A
O528       Cd535   2.184       .  S
O529        C547   1.257       .  A
O529       Cd538   1.974       .  S
O530        C544   1.283       .  A
O530       Cd534   2.102       .  S
O531        C542   1.276       .  A
O531       Cd534   2.092       .  S
Zn532       O543   2.026       .  S
Zn532       O545   1.882       .  S
Zn532       O537   1.921       .  S
O533        C544   1.277       .  A
O533       Cd538   2.081       .  S
Cd534       O536   1.971       .  S
Cd534       O537   1.977       .  S
Cd535       O539   2.183       .  S
Cd535       O548   2.191       .  S
Cd535       O537   2.036       .  S
O536        C546   1.257       .  A
O537       Cd538   1.969       .  S
Cd538       O540   2.082       .  S
O539        C546   1.292       .  A
C541        O545   1.251       .  A
C541        C559   1.475       .  S
C542        C553   1.490       .  S
C544        C599   1.489       .  S
C546        C641   1.474       .  S
C547        O548   1.292       .  A
C547        C617   1.479       .  S
C549        C781   1.465       .  S
C549        N550   1.362   1_455  A
C549        N554   1.351       .  A
N550        C551   1.358       .  A
C551        N552   1.379   1_655  A
N552        C553   1.371       .  A
C553        N554   1.346       .  A
C555        C681   1.450       .  S
C555        N556   1.356   1_655  A
C555        N560   1.356   1_655  A
N556        C557   1.344       .  A
C557        N558   1.372       .  A
N558        C559   1.373       .  A
C559        N560   1.346       .  A
C561        C688   1.451       .  S
C561        N562   1.348       .  A
C561        N566   1.350       .  A
N562        C563   1.345       .  A
C563        N564   1.380       .  A
N564        C565   1.380       .  A
C565        N566   1.352       .  A
C567        C698   1.464       .  S
C567        N568   1.354       .  A
C567        N572   1.359   1_565  A
N568        C569   1.341   1_565  A
C569        N570   1.374       .  A
N570        C571   1.387       .  A
C571        N572   1.355       .  A
C573        C788   1.469       .  S
C573        N574   1.363   1_655  A
C573        N578   1.359       .  A
N574        C575   1.352       .  A
C575        N576   1.376   1_455  A
N576        C577   1.372       .  A
C577        N578   1.348       .  A
C579        C801   1.460       .  S
C579        N580   1.356   1_655  A
C579        N584   1.346       .  A
N580        C581   1.353       .  A
C581        N582   1.383   1_455  A
N582        C583   1.380       .  A
C583        N584   1.347       .  A
C585        C711   1.465       .  S
C585        N586   1.361       .  A
C585        N590   1.358       .  A
N586        C587   1.356       .  A
C587        N588   1.379       .  A
N588        C589   1.372       .  A
C589        N590   1.345       .  A
C591        C841   1.467       .  S
C591        N592   1.363       .  A
C591        N596   1.363   1_545  A
N592        C593   1.352       .  A
C593        N594   1.377   1_545  A
N594        C595   1.376       .  A
C595        N596   1.351       .  A
C597        C821   1.457       .  S
C597        N598   1.353   1_554  A
C597        N602   1.362       .  A
N598        C599   1.342       .  A
C599        N600   1.366   1_556  A
N600        C601   1.379       .  A
C601        N602   1.359       .  A
C603        C671   1.468       .  S
C603        N604   1.358       .  A
C603        N608   1.359       .  A
N604        C605   1.349       .  A
C605        N606   1.373       .  A
N606        C607   1.383       .  A
C607        N608   1.354       .  A
C609        C881   1.460       .  S
C609        N610   1.360       .  A
C609        N614   1.352       .  A
N610        C611   1.358       .  A
C611        N612   1.379       .  A
N612        C613   1.368       .  A
C613        N614   1.341       .  A
C615        C831   1.467   1_554  S
C615        N616   1.358   1_554  A
C615        N620   1.362       .  A
N616        C617   1.353       .  A
C617        N618   1.375   1_556  A
N618        C619   1.369       .  A
C619        N620   1.351       .  A
C621        C808   1.448       .  S
C621        N622   1.343       .  A
C621        N626   1.357       .  A
N622        C623   1.341       .  A
C623        N624   1.377       .  A
N624        C625   1.379       .  A
C625        N626   1.355       .  A
C627        C871   1.465       .  S
C627        N628   1.350       .  A
C627        N632   1.363       .  A
N628        C629   1.345       .  A
C629        N630   1.373       .  A
N630        C631   1.382       .  A
C631        N632   1.357       .  A
C633        C771   1.433       .  S
C633        N634   1.340       .  A
C633        N638   1.347       .  A
N634        C635   1.341       .  A
C635        N636   1.377       .  A
N636        C637   1.377       .  A
C637        N638   1.345       .  A
C639        C751   1.467       .  S
C639        N640   1.354       .  A
C639        N644   1.359       .  A
N640        C641   1.349   1_554  A
C641        N642   1.376       .  A
N642        C643   1.369       .  A
C643        N644   1.352   1_556  A
C645        C731   1.457       .  S
C645        N646   1.347       .  A
C645        N650   1.351   1_554  A
N646        C647   1.349   1_545  A
C647        N648   1.377   1_554  A
N648        C649   1.381       .  A
C649        N650   1.349   1_565  A
C651        C741   1.469       .  S
C651        N652   1.364       .  A
C651        N656   1.356       .  A
N652        C653   1.360   1_455  A
C653        N654   1.384       .  A
N654        C655   1.374       .  A
C655        N656   1.346   1_655  A
C657        C658   1.405       .  A
C657        C662   1.387       .  A
C657       Br664   1.937       .  S
C658        C659   1.405       .  A
C659        C660   1.408       .  A
C659       Br666   1.927       .  S
C660        C661   1.416       .  A
C660       Br665   1.930       .  S
C661        C662   1.409       .  A
C662       Br663   1.940       .  S
C667        C668   1.411       .  A
C667        C672   1.406       .  A
C667       Br674   1.933       .  S
C668        C669   1.412       .  A
C669        C670   1.398       .  A
C669       Br676   1.937       .  S
C670        C671   1.410       .  A
C670       Br675   1.937       .  S
C671        C672   1.413       .  A
C672       Br673   1.934       .  S
C677        C678   1.411       .  A
C677        C682   1.399       .  A
C677       Br684   1.935       .  S
C678        C679   1.407       .  A
C679        C680   1.389       .  A
C679       Br686   1.939       .  S
C680        C681   1.411       .  A
C680       Br685   1.941       .  S
C681        C682   1.410       .  A
C682       Br683   1.937       .  S
C687        C688   1.406       .  A
C687        C692   1.395       .  A
C687       Br694   1.935       .  S
C688        C689   1.408       .  A
C689        C690   1.400       .  A
C689       Br696   1.935       .  S
C690        C691   1.409       .  A
C690       Br695   1.933       .  S
C691        C692   1.411       .  A
C692       Br693   1.935       .  S
C697        C698   1.416       .  A
C697        C702   1.404       .  A
C697       Br704   1.933       .  S
C698        C699   1.408       .  A
C699        C700   1.393       .  A
C699       Br706   1.937       .  S
C700        C701   1.413       .  A
C700       Br705   1.941       .  S
C701        C702   1.410       .  A
C702       Br703   1.934       .  S
C707        C708   1.412       .  A
C707        C712   1.404       .  A
C707       Br714   1.936       .  S
C708        C709   1.405       .  A
C709        C710   1.395       .  A
C709       Br716   1.935       .  S
C710        C711   1.412       .  A
C710       Br715   1.936       .  S
C711        C712   1.411       .  A
C712       Br713   1.932       .  S
C717        C718   1.412       .  A
C717        C722   1.402       .  A
C717       Br724   1.934       .  S
C718        C719   1.415       .  A
C719        C720   1.395       .  A
C719       Br726   1.936       .  S
C720        C721   1.404       .  A
C720       Br725   1.936       .  S
C721        C722   1.411       .  A
C722       Br723   1.934       .  S
C727        C728   1.410       .  A
C727        C732   1.399       .  A
C727       Br734   1.936       .  S
C728        C729   1.405       .  A
C729        C730   1.393       .  A
C729       Br736   1.937       .  S
C730        C731   1.411       .  A
C730       Br735   1.935   1_554  S
C731        C732   1.411       .  A
C732       Br733   1.935       .  S
C737        C738   1.415   1_565  A
C737        C742   1.400       .  A
C737       Br744   1.936       .  S
C738        C739   1.413       .  A
C739        C740   1.408       .  A
C739       Br746   1.932       .  S
C740        C741   1.410       .  A
C740       Br745   1.930       .  S
C741        C742   1.408   1_545  A
C742       Br743   1.938       .  S
C747        C748   1.413   1_655  A
C747        C752   1.394       .  A
C747       Br754   1.941       .  S
C748        C749   1.403       .  A
C749        C750   1.404       .  A
C749       Br756   1.934       .  S
C750        C751   1.420       .  A
C750       Br755   1.934       .  S
C751        C752   1.409   1_455  A
C752       Br753   1.939       .  S
C757        C758   1.415       .  A
C757        C762   1.405       .  A
C757       Br764   1.933       .  S
C758        C759   1.419       .  A
C759        C760   1.405       .  A
C759       Br766   1.937       .  S
C760        C761   1.409       .  A
C760       Br765   1.938       .  S
C761        C762   1.407       .  A
C762       Br763   1.933       .  S
C767        C768   1.407       .  A
C767        C772   1.385       .  A
C767       Br774   1.938       .  S
C768        C769   1.404       .  A
C769        C770   1.390       .  A
C769       Br776   1.938       .  S
C770        C771   1.410       .  A
C770       Br775   1.935       .  S
C771        C772   1.404       .  A
C772       Br773   1.937       .  S
C777        C778   1.414       .  A
C777        C782   1.405       .  A
C777       Br784   1.934       .  S
C778        C779   1.408   1_655  A
C779        C780   1.396       .  A
C779       Br786   1.940       .  S
C780        C781   1.415       .  A
C780       Br785   1.939       .  S
C781        C782   1.408   1_455  A
C782       Br783   1.929       .  S
C787        C788   1.414   1_455  A
C787        C792   1.399       .  A
C787       Br794   1.939       .  S
C788        C789   1.417       .  A
C789        C790   1.400       .  A
C789       Br796   1.935       .  S
C790        C791   1.404       .  A
C790       Br795   1.935       .  S
C791        C792   1.411   1_655  A
C792       Br793   1.939       .  S
C797        C798   1.412   1_455  A
C797        C802   1.401       .  A
C797       Br804   1.932       .  S
C798        C799   1.406       .  A
C799        C800   1.397       .  A
C799       Br806   1.933       .  S
C800        C801   1.411       .  A
C800       Br805   1.934       .  S
C801        C802   1.408   1_655  A
C802       Br803   1.935       .  S
C807        C808   1.402       .  A
C807        C812   1.399       .  A
C807       Br814   1.936       .  S
C808        C809   1.407       .  A
C809        C810   1.395       .  A
C809       Br816   1.936   1_565  S
C810        C811   1.411       .  A
C810       Br815   1.935       .  S
C811        C812   1.418       .  A
C812       Br813   1.934       .  S
C817        C818   1.416       .  A
C817        C822   1.408       .  A
C817       Br824   1.930       .  S
C818        C819   1.407   1_554  A
C819        C820   1.387       .  A
C819       Br826   1.939       .  S
C820        C821   1.407   1_556  A
C820       Br825   1.937       .  S
C821        C822   1.406       .  A
C822       Br823   1.929       .  S
C827        C828   1.412       .  A
C827        C832   1.400       .  A
C827       Br834   1.935       .  S
C828        C829   1.416       .  A
C829        C830   1.404       .  A
C829       Br836   1.935   1_556  S
C830        C831   1.406       .  A
C830       Br835   1.930   1_556  S
C831        C832   1.411       .  A
C832       Br833   1.935       .  S
C837        C838   1.407       .  A
C837        C842   1.403       .  A
C837       Br844   1.931   1_545  S
C838        C839   1.413       .  A
C839        C840   1.400       .  A
C839       Br846   1.937       .  S
C840        C841   1.410       .  A
C840       Br845   1.936       .  S
C841        C842   1.413       .  A
C842       Br843   1.932   1_545  S
C847        C848   1.414       .  A
C847        C852   1.399       .  A
C847       Br854   1.932       .  S
C848        C849   1.408   1_565  A
C849        C850   1.392   1_545  A
C849       Br856   1.937       .  S
C850        C851   1.412       .  A
C850       Br855   1.940   1_565  S
C851        C852   1.400       .  A
C852       Br853   1.929       .  S
C857        C858   1.413       .  A
C857        C862   1.396       .  A
C857       Br864   1.940       .  S
C858        C859   1.405       .  A
C859        C860   1.400       .  A
C859       Br866   1.933       .  S
C860        C861   1.413       .  A
C860       Br865   1.932       .  S
C861        C862   1.410       .  A
C862       Br863   1.939       .  S
C867        C868   1.405       .  A
C867        C872   1.396       .  A
C867       Br874   1.938       .  S
C868        C869   1.412       .  A
C869        C870   1.403       .  A
C869       Br876   1.931       .  S
C870        C871   1.406       .  A
C870       Br875   1.932       .  S
C871        C872   1.418       .  A
C872       Br873   1.939       .  S
C877        C878   1.413       .  A
C877        C882   1.406       .  A
C877       Br884   1.931       .  S
C878        C879   1.405       .  A
C879        C880   1.389       .  A
C879       Br886   1.939       .  S
C880        C881   1.413       .  A
C880       Br885   1.940       .  S
C881        C882   1.406       .  A
C882       Br883   1.928       .  S
C887        C888   1.419       .  A
C887        C892   1.404       .  A
C887       Br894   1.936   1_556  S
C888        C889   1.414       .  A
C889        C890   1.398       .  A
C889       Br896   1.936       .  S
C890        C891   1.409       .  A
C890       Br895   1.939       .  S
C891        C892   1.404       .  A
C892       Br893   1.932   1_556  S
