geometry optimzed in LAMMPS
_audit_creation_date              2020-11-30 
_audit_creation_method            'lammps2cif' 
_symmetry_space_group_name_H-M    'P1' 
_symmetry_Int_Tables_number       1 
_symmetry_cell_setting            triclinic 
loop_ 
_symmetry_equiv_pos_as_xyz 
  x,y,z 
_cell_length_a                    37.61905486695733 
_cell_length_b                    37.737347405327185 
_cell_length_c                    37.87818725047093 
_cell_angle_alpha                 91.98077086436085 
_cell_angle_beta                  90.1550979196274 
_cell_angle_gamma                 92.4413797826527 
loop_ 
_atom_site_label 
_atom_site_type_symbol 
_atom_site_fract_x 
_atom_site_fract_y 
_atom_site_fract_z 
_atom_site_charge 
C1          C  0.50648225  0.12194151  0.24049461    -0.02310
O2          O  0.46472752  0.05883052  0.39869091    -0.86310
O3          O  0.12711166  0.46956957  0.45374206    -0.86480
O4          O  0.08153054  0.08746983  0.42888725    -0.88150
O5          O  0.04365149  0.48925298  0.36162580    -0.86900
O6          O  0.01027856  0.43872446  0.37440814    -0.86490
O7          O  0.07326975  0.10546309  0.48699395    -0.87870
O8          O  0.11639310  0.50952369  0.41101438    -0.86340
O9          O  0.02346339  0.07118251  0.39113524    -0.85930
Zr10       Zr  0.05475331  0.02565658  0.41857165     2.84310
O11         O  0.05349030  0.46611349  0.43540340    -1.07910
O12         O  0.02008086  0.05758709  0.45886112    -1.08640
C13         C  0.99148359  0.06902306  0.37965496     1.06790
C14         C  0.13660100  0.48802146  0.42661453     1.06740
C15         C  0.08342524  0.11082120  0.45525459     1.09720
C16         C  0.02714895  0.45892698  0.35265852     1.07500
H17         H  0.10115376  0.03493155  0.47612829     0.33060
O18         O  0.07696989  0.02532352  0.47627731    -1.28860
H19         H  0.48606428  0.50065539  0.39557285     0.32730
O20         O  0.99627115  0.50117835  0.41895910    -1.30540
O21         O  0.07284673  0.44646772  0.05494674    -0.86310
O22         O  0.40795898  0.03008147  0.49651479    -0.87800
O23         O  0.10268657  0.04875719  0.04454594    -0.86380
O24         O  0.03007597  0.38913038  0.44364810    -0.86430
O25         O  0.43605373  0.44943038  0.40824745    -0.86150
O26         O  0.00416838  0.11162875  0.01546481    -0.85950
O27         O  0.48539343  0.01441611  0.08927240    -0.86320
O28         O  0.45369793  0.41249467  0.02181529    -0.85790
O29         O  0.02316727  0.06137074  0.07697779    -0.86850
O30         O  0.45601353  0.39994387  0.46226107    -0.86010
O31         O  0.12011400  0.49399763  0.02492301    -0.86410
O32         O  0.46113627  0.09449965  0.47549013    -0.86130
O33         O  0.41703203  0.50417129  0.42616534    -0.85780
O34         O  0.07559727  0.40465050  0.48223246    -0.86190
O35         O  0.01580219  0.44992518  0.07611845    -0.86480
O36         O  0.41932907  0.49116199  0.03987163    -0.87820
Zr37       Zr  0.07401264  0.46649384  0.49337488     2.83100
Zr38       Zr  0.46200726  0.03433993  0.45840854     2.83500
Zr39       Zr  0.04257112  0.05840166  0.01641751     2.84090
Zr40       Zr  0.99466801  0.44282406  0.43662338     2.83360
Zr41       Zr  0.48047906  0.47558375  0.03328177     2.84220
O42         O  0.45921005  0.47588347  0.47543392    -1.08390
O43         O  0.03927352  0.49939921  0.03215512    -1.07890
C44         C  0.04875735  0.44366041  0.07925456     1.06770
C45         C  0.39880790  0.01190711  0.02390450     1.09380
C46         C  0.12499420  0.02299168  0.04250473     1.06940
C47         C  0.05724267  0.38208184  0.46306208     1.07300
C48         C  0.41337946  0.47439738  0.40954501     1.06880
C49         C  0.47571351  0.11737968  0.49712889     1.06440
C50         C  0.00262475  0.04426698  0.09826758     1.06860
C51         C  0.44836786  0.39140546  0.99367617     1.06370
H52         H  0.46865229  0.04904530  0.03114903     0.33050
O53         O  0.48338184  0.03474083  0.01601501    -1.29490
H54         H  0.01618914  0.41903371  0.00367724     0.33070
O55         O  0.01601635  0.44260820  0.49474393    -1.30870
C56         C  0.26366860  0.00589558  0.10407310    -0.02310
O57         O  0.17772607  0.18615256  0.27602526    -0.86310
O58         O  0.24820428  0.27774247  0.11357515    -0.86480
O59         O  0.15139933  0.26047771  0.18715724    -0.88150
O60         O  0.20945694  0.16479715  0.15897819    -0.86900
O61         O  0.26664738  0.14906479  0.16979379    -0.86490
O62         O  0.16644587  0.30657025  0.22547004    -0.87870
O63         O  0.20125571  0.23954632  0.12647758    -0.86340
O64         O  0.15943608  0.19165087  0.21849042    -0.85930
Zr65       Zr  0.20467937  0.22420164  0.18721191     2.84310
O66         O  0.26379704  0.22567681  0.16819077    -1.07910
O67         O  0.20358195  0.24806940  0.24474860    -1.08640
C68         C  0.15492516  0.18117343  0.25013037     1.06790
C69         C  0.21827389  0.26024338  0.10557431     1.06740
C70         C  0.14461926  0.28959448  0.20444161     1.09720
C71         C  0.23550225  0.14349817  0.15687426     1.07500
H72         H  0.21419502  0.29700221  0.17056549     0.33060
O73         O  0.22829948  0.28280649  0.18551867    -1.28860
H74         H  0.22759292  0.16675177  0.22629427     0.32730
O75         O  0.23751652  0.19075175  0.22584955    -1.30540
O76         O  0.35140996  0.31168416  0.17665292    -0.86310
O77         O  0.28111234  0.22390051  0.33481943    -0.87800
O78         O  0.23733917  0.36093308  0.20783839    -0.86380
O79         O  0.32865493  0.19429079  0.14984807    -0.86430
O80         O  0.28792408  0.13997477  0.24584678    -0.86150
O81         O  0.19462955  0.30374911  0.29942197    -0.85950
O82         O  0.30783089  0.33928907  0.27816395    -0.86320
O83         O  0.37151298  0.23585452  0.25920102    -0.85790
O84         O  0.24862952  0.34472413  0.28599788    -0.86850
O85         O  0.35378225  0.18481350  0.22859092    -0.86010
O86         O  0.27441584  0.34598922  0.16232696    -0.86410
O87         O  0.20361851  0.24929315  0.32263639    -0.86130
O88         O  0.25314198  0.15627305  0.29287650    -0.85780
O89         O  0.32282890  0.25004967  0.12820925    -0.86190
O90         O  0.36678400  0.30725946  0.23500370    -0.86480
O91         O  0.32529448  0.26545783  0.32371837    -0.87820
Zr92       Zr  0.28818929  0.28431271  0.16729200     2.83100
Zr93       Zr  0.23824304  0.21596410  0.28307435     2.83500
Zr94       Zr  0.22663194  0.30585443  0.24288404     2.84090
Zr95       Zr  0.29603894  0.19191272  0.20662859     2.83360
Zr96       Zr  0.31946962  0.27551317  0.26212779     2.84220
O97         O  0.29683329  0.21677028  0.26360139    -1.08390
O98         O  0.28587632  0.30876582  0.22433402    -1.07890
C99         C  0.37391128  0.31582334  0.20334769     1.06770
C100        C  0.30930480  0.24362921  0.34422328     1.09380
C101        C  0.25652017  0.36876844  0.18022889     1.06940
C102        C  0.33410797  0.21850072  0.12668533     1.07300
C103        C  0.27165120  0.13390455  0.27552811     1.06880
C104        C  0.19151614  0.28043771  0.32363841     1.06440
C105        C  0.27997252  0.35771449  0.28533097     1.06860
C106        C  0.37718872  0.20470378  0.24476293     1.06370
H107        H  0.26095459  0.28484813  0.30543213     0.33050
O108        O  0.26102765  0.27429300  0.28185911    -1.29490
H109        H  0.34465357  0.24851703  0.19713188     0.33070
O110        O  0.32045305  0.24977382  0.20527635    -1.30870
C111        C  0.14357305  0.25877773  0.46535975    -0.02310
C112        C  0.02147903  0.38037235  0.21127570    -0.02310
C113        C  0.38528163  0.24257579  0.48618351    -0.02310
C114        C  0.27641152  0.49929322  0.35342553    -0.02310
C115        C  0.18678510  0.28802569  0.41942762    -0.12090
C116        C  0.15654021  0.26602692  0.42636009     0.04910
C117        C  0.13257326  0.26045641  0.39656861    -0.07380
C118        C  0.14246802  0.27078010  0.36284306    -0.08120
C119        C  0.17471805  0.28858370  0.35697142    -0.02680
C120        C  0.19664393  0.29860462  0.38575403     0.04140
N121        N  0.22953086  0.31884313  0.38111990     0.66650
H122        H  0.20077383  0.30177280  0.43994558     0.15550
H123        H  0.12530112  0.26321327  0.34051821     0.15260
N124        N  0.09671742  0.24703238  0.39950201     0.74210
O125        O  0.25526578  0.31586060  0.40212053    -0.39100
O126        O  0.23225134  0.34144988  0.35741300    -0.39040
O127        O  0.07295601  0.26854712  0.40734859    -0.39750
O128        O  0.08766222  0.21826942  0.38322618    -0.39810
C129        C  0.22091786  0.26989606  0.04008117    -0.12090
C130        C  0.20082455  0.26293648  0.06999375     0.04910
C131        C  0.16412988  0.25440321  0.06499251    -0.07380
C132        C  0.14947448  0.25136576  0.03095031    -0.08120
C133        C  0.16859108  0.25906672  0.99977823    -0.02680
C134        C  0.20621275  0.26742395  0.00552847     0.04140
N135        N  0.23140395  0.27255585  0.47816931     0.66650
H136        H  0.24905962  0.27617263  0.04353348     0.15550
H137        H  0.12164183  0.24346196  0.02922503     0.15260
N138        N  0.14044110  0.25077599  0.09437526     0.74350
O139        O  0.25128058  0.30043216  0.47873688    -0.39100
O140        O  0.23923201  0.24678932  0.45827329    -0.39040
O141        O  0.13803558  0.27630005  0.11652949    -0.39750
O142        O  0.11761633  0.22526960  0.09470486    -0.39810
C143        C  0.36194319  0.25415104  0.38467575    -0.12090
C144        C  0.32638350  0.24186509  0.38050770     0.04910
C145        C  0.31047022  0.22622963  0.40996786    -0.07380
C146        C  0.32909205  0.22622149  0.44267866    -0.08120
C147        C  0.36417750  0.24099016  0.44859463    -0.02680
C148        C  0.38129823  0.25137382  0.41635339     0.04140
N149        N  0.41911597  0.25359680  0.41260275     0.66650
H150        H  0.37645035  0.26309057  0.36173279     0.15550
H151        H  0.31743763  0.20900268  0.46105541     0.15260
N152        N  0.27616935  0.20847669  0.40689775     0.74350
O153        O  0.43620982  0.22568796  0.41476944    -0.39100
O154        O  0.43337474  0.27947192  0.39684272    -0.39040
O155        O  0.27025925  0.17916079  0.42132992    -0.39750
O156        O  0.25068387  0.22392035  0.39324031    -0.39810
C157        C  0.39169164  0.24171248  0.05294175    -0.12090
C158        C  0.36816949  0.23462262  0.02371271     0.04910
C159        C  0.33486904  0.21718884  0.03234447    -0.07380
C160        C  0.33053470  0.20169058  0.06542236    -0.08120
C161        C  0.35302794  0.21136145  0.09381190    -0.02680
C162        C  0.38452788  0.23147817  0.08730018     0.04140
N163        N  0.40861433  0.24402401  0.11524204     0.66650
H164        H  0.41575774  0.25772036  0.04965233     0.15550
H165        H  0.30465010  0.18992800  0.07169496     0.15260
N166        N  0.30230642  0.22482074  0.01537639     0.74350
O167        O  0.44128761  0.24944370  0.10881682    -0.39100
O168        O  0.39744363  0.25171583  0.14580905    -0.39040
O169        O  0.27611992  0.20269847  0.01508485    -0.39750
O170        O  0.29806998  0.25540923  0.00447453    -0.39810
C171        C  0.25039560  0.41554942  0.29038438    -0.12090
C172        C  0.28170148  0.39616432  0.29287587     0.04910
C173        C  0.31206520  0.41310055  0.30575869    -0.07380
C174        C  0.30953056  0.44632213  0.32123623    -0.08120
C175        C  0.27727378  0.46567064  0.32557890    -0.02680
C176        C  0.24713428  0.44990386  0.30600375     0.04140
N177        N  0.21259577  0.46568891  0.30278999     0.66650
H178        H  0.22723112  0.40270060  0.27767462     0.15550
H179        H  0.33494923  0.45428119  0.33100393     0.15260
N180        N  0.34552345  0.39609423  0.30604666     0.74350
O181        O  0.20443913  0.49320548  0.32020949    -0.39100
O182        O  0.18994241  0.45243095  0.28088497    -0.39040
O183        O  0.36155238  0.39012660  0.27735339    -0.39750
O184        O  0.36152447  0.39228769  0.33492782    -0.39810
C185        C  0.26182510  0.03662864  0.29903463    -0.12090
C186        C  0.27435073  0.03646796  0.33446689     0.04910
C187        C  0.28822512  0.07102409  0.34825931    -0.07380
C188        C  0.28985256  0.10037492  0.32630299    -0.08120
C189        C  0.27453409  0.09950480  0.29288734    -0.02680
C190        C  0.25666740  0.06795202  0.28104001     0.04140
N191        N  0.22903403  0.06818795  0.25480894     0.66650
H192        H  0.25432623  0.01260025  0.28472987     0.15550
H193        H  0.30199671  0.12529016  0.33647332     0.15260
N194        N  0.30225560  0.07877887  0.38320402     0.74350
O195        O  0.21712795  0.03939873  0.24042498    -0.39100
O196        O  0.21043924  0.09512830  0.25311822    -0.39040
O197        O  0.33322012  0.07012046  0.39091455    -0.39750
O198        O  0.29093188  0.10568657  0.39966040    -0.39810
C199        C  0.42052008  0.36036277  0.18102200    -0.12090
C200        C  0.41168758  0.33043557  0.20015798     0.04910
C201        C  0.43826102  0.31798109  0.22281561    -0.07380
C202        C  0.47071705  0.33696513  0.22845808    -0.08120
C203        C  0.48167798  0.36504890  0.20739105    -0.02680
C204        C  0.45462400  0.37768343  0.18394477     0.04140
N205        N  0.46036811  0.40789822  0.16254144     0.66650
H206        H  0.40061889  0.37103990  0.16416476     0.15550
H207        H  0.48898428  0.32722416  0.24738974     0.15260
N208        N  0.43433867  0.28347191  0.23697119     0.74350
O209        O  0.45640570  0.40433850  0.12947942    -0.39100
O210        O  0.45972661  0.43853259  0.17667944    -0.39040
O211        O  0.43007009  0.25730256  0.21558702    -0.39750
O212        O  0.44400723  0.27836567  0.26827160    -0.39810
C213        C  0.04740902  0.31628640  0.20467762    -0.12090
C214        C  0.05252563  0.35371541  0.21009930     0.04910
C215        C  0.08858980  0.36780311  0.20857675    -0.07380
C216        C  0.11613642  0.34551824  0.20237823    -0.08120
C217        C  0.11128368  0.30863667  0.20015854    -0.02680
C218        C  0.07625749  0.29374019  0.19924563     0.04140
N219        N  0.06897631  0.25699062  0.18979838     0.66650
H220        H  0.02108364  0.30417340  0.20203083     0.15550
H221        H  0.14273039  0.35774041  0.20087483     0.15260
N222        N  0.09833527  0.40510336  0.21086810     0.74350
O223        O  0.04324664  0.24821549  0.16941505    -0.39100
O224        O  0.08803688  0.23319322  0.20124551    -0.39040
O225        O  0.10071135  0.42090052  0.24070738    -0.39750
O226        O  0.11520497  0.41858999  0.18547976    -0.39810
C227        C  0.28954465  0.44905899  0.12887975    -0.12090
C228        C  0.26162392  0.47330925  0.13044570     0.04910
C229        C  0.23256746  0.46361125  0.15441173    -0.07380
C230        C  0.23195443  0.42991251  0.17072188    -0.08120
C231        C  0.25953287  0.40629021  0.16702141    -0.02680
C232        C  0.28977802  0.41779864  0.14786924     0.04140
N233        N  0.32195606  0.39857650  0.14842415     0.66650
H234        H  0.31272378  0.45387988  0.11289177     0.15550
H235        H  0.20912084  0.42169583  0.18625979     0.15260
N236        N  0.20394626  0.48654628  0.16443278     0.74350
O237        O  0.34063505  0.39540313  0.12093391    -0.39100
O238        O  0.33426231  0.38919207  0.17753686    -0.39040
O239        O  0.18742860  0.48159599  0.19295563    -0.39750
O240        O  0.19382696  0.51082657  0.14533331    -0.39810
C241        C  0.23344581  0.08126158  0.16449310    -0.12090
C242        C  0.23187426  0.10847256  0.14014011     0.04910
C243        C  0.24934842  0.10437340  0.10767361    -0.07380
C244        C  0.26753211  0.07341172  0.10106216    -0.08120
C245        C  0.26284544  0.04356606  0.12250930    -0.02680
C246        C  0.25336625  0.05114143  0.15783516     0.04140
N247        N  0.27511209  0.04002313  0.18641535     0.66650
H248        H  0.22652380  0.08753171  0.19139817     0.15550
H249        H  0.28306720  0.07154993  0.07721531     0.15260
N250        N  0.25089003  0.13225421  0.08244299     0.74350
O251        O  0.29418629  0.06298489  0.20359667    -0.39100
O252        O  0.27321759  0.00875612  0.19703546    -0.39040
O253        O  0.27160402  0.13051097  0.05631436    -0.39750
O254        O  0.22894162  0.15666427  0.08391558    -0.39810
C255        C  0.04962797  0.39370180  0.11443146    -0.12090
C256        C  0.05681483  0.42980148  0.11344378     0.04910
C257        C  0.05292020  0.45143607  0.14437874    -0.07380
C258        C  0.04019255  0.43592897  0.17558084    -0.08120
C259        C  0.03042700  0.39942866  0.17626961    -0.02680
C260        C  0.03412268  0.37863326  0.14375003     0.04140
N261        N  0.02341980  0.34166137  0.13960539     0.66650
H262        H  0.05110905  0.37759659  0.09018262     0.15550
H263        H  0.03899734  0.45233599  0.19937933     0.15260
N264        N  0.06142477  0.48907114  0.14417131     0.74350
O265        O  0.99081895  0.33259086  0.13760735    -0.39100
O266        O  0.04551669  0.32031501  0.12712350    -0.39040
O267        O  0.05306241  0.50905914  0.16994225    -0.39750
O268        O  0.07965560  0.50220793  0.11952255    -0.39810
C269        C  0.00373955  0.43251027  0.25485307    -0.12090
C270        C  0.02419981  0.40220858  0.24854212     0.04910
C271        C  0.04407529  0.39160407  0.27895555    -0.07380
C272        C  0.04719517  0.41350823  0.30976831    -0.08120
C273        C  0.02788855  0.44399012  0.31511721    -0.02680
C274        C  0.00398619  0.45259285  0.28766678     0.04140
N275        N  0.47828103  0.47972961  0.29289807     0.66650
H276        H  0.48609214  0.43989027  0.23428424     0.15550
H277        H  0.06306575  0.40468666  0.33149509     0.15260
N278        N  0.06027459  0.35797869  0.28089178     0.74350
O279        O  0.47362805  0.49425098  0.32292296    -0.39100
O280        O  0.45749239  0.48690261  0.26815408    -0.39040
O281        O  0.09302399  0.35727219  0.28814725    -0.39750
O282        O  0.04084940  0.33050977  0.28566157    -0.39810
C283        C  0.19579926  0.01735953  0.41786064    -0.12090
C284        C  0.17400731  0.48672444  0.41296426     0.04910
C285        C  0.18879310  0.45695164  0.39568056    -0.07380
C286        C  0.22389839  0.46034648  0.38173902    -0.08120
C287        C  0.24390279  0.49343624  0.38099087    -0.02680
C288        C  0.23106872  0.02000246  0.40511531     0.04140
N289        N  0.25449543  0.04496290  0.42371931     0.66650
H290        H  0.18584392  0.03877720  0.43434486     0.15550
H291        H  0.23480184  0.43687175  0.36980431     0.15260
N292        N  0.16833750  0.42396975  0.39000150     0.74350
O293        O  0.24221313  0.07303875  0.43708267    -0.39100
O294        O  0.28298626  0.03423029  0.43632167    -0.39040
O295        O  0.13476246  0.42321234  0.39030267    -0.39750
O296        O  0.18364034  0.39596746  0.38095770    -0.39810
C297        C  0.37779471  0.49792127  0.36500631    -0.12090
C298        C  0.38015526  0.47207440  0.39035210     0.04910
C299        C  0.34908443  0.45812329  0.40623031    -0.07380
C300        C  0.31632789  0.47222310  0.39766235    -0.08120
C301        C  0.31302884  0.49852025  0.37208045    -0.02680
C302        C  0.34533727  0.51057281  0.35463501     0.04140
N303        N  0.34547089  0.02844324  0.32165089     0.66650
H304        H  0.40191426  0.50825037  0.35266481     0.15550
H305        H  0.29275298  0.46016540  0.40915390     0.15260
N306        N  0.34999495  0.42978699  0.43090900     0.74350
O307        O  0.36116675  0.05847192  0.31964802    -0.39100
O308        O  0.33825209  0.01103739  0.29330180    -0.39040
O309        O  0.37728316  0.42515508  0.44936136    -0.39750
O310        O  0.32296796  0.40927002  0.43469131    -0.39810
C311        C  0.22420397  0.03153958  0.05444816    -0.12090
C312        C  0.23016983  0.00405259  0.07825854     0.04910
C313        C  0.20129979  0.47929449  0.08121529    -0.07380
C314        C  0.16672202  0.49109013  0.07675475    -0.08120
C315        C  0.16013741  0.02316164  0.05982900    -0.02680
C316        C  0.18981926  0.04223039  0.04593391     0.04140
N317        N  0.18618561  0.07111382  0.02219892     0.66650
H318        H  0.24645445  0.04510525  0.04226296     0.15550
H319        H  0.14450074  0.47282400  0.08213308     0.15260
N320        N  0.20656560  0.44204419  0.08490752     0.74350
O321        O  0.21179536  0.09327214  0.01805095    -0.39100
O322        O  0.15870534  0.07351003  0.50341760    -0.39040
O323        O  0.18204584  0.42197010  0.09683092    -0.39750
O324        O  0.23352695  0.42825290  0.07129075    -0.39810
C325        C  0.30011189  0.99702397  0.04602678    -0.12090
C326        C  0.29955904  0.00672793  0.08238807     0.04910
C327        C  0.33252802  0.02013748  0.09760397    -0.07380
C328        C  0.36294430  0.02458258  0.07667129    -0.08120
C329        C  0.36309357  0.01526109  0.04064732    -0.02680
C330        C  0.33085321  0.00189428  0.02496176     0.04140
N331        N  0.32849701  0.99293956  0.48792987     0.66650
H332        H  0.27621558  0.98579457  0.03343808     0.15550
H333        H  0.38744731  0.03455666  0.08913406     0.15260
N334        N  0.33605591  0.02963239  0.13439488     0.74350
O335        O  0.30370490  0.47201811  0.47648140    -0.39100
O336        O  0.34650374  0.01073838  0.46619464    -0.39040
O337        O  0.33987711  0.50556411  0.15621853    -0.39750
O338        O  0.34554730  0.06115771  0.14339139    -0.39810
C339        C  0.44683913  0.21489776  0.50312339    -0.12090
C340        C  0.41306639  0.21191574  0.48500800     0.04910
C341        C  0.40109710  0.17648886  0.97566181    -0.07380
C342        C  0.42125863  0.14793918  0.48315118    -0.08120
C343        C  0.45528243  0.15100676  0.49865526    -0.02680
C344        C  0.46736680  0.18514204  0.51072363     0.04140
N345        N  0.99873841  0.19008948  0.53235598     0.66650
H346        H  0.45683262  0.24009762  0.51405702     0.15550
H347        H  0.40916237  0.12212958  0.97575388     0.15260
N348        N  0.36789591  0.16744624  0.95871020     0.74350
O349        O  0.01791049  0.21824748  0.53073692    -0.39100
O350        O  0.00350566  0.16976353  0.05757796    -0.39040
O351        O  0.36767213  0.16253707  0.42555642    -0.39750
O352        O  0.34365643  0.15226778  0.97642309    -0.39810
C353        C  0.40141130  0.34550093  0.01133209    -0.12090
C354        C  0.43398130  0.35358283  0.99520945     0.04910
C355        C  0.44958745  0.32555826  0.47507218    -0.07380
C356        C  0.43591884  0.29061377  0.47721216    -0.08120
C357        C  0.40193527  0.28214838  0.49037484    -0.02680
C358        C  0.38419446  0.31145479  0.00679738     0.04140
N359        N  0.34788612  0.30851978  0.01721075     0.66650
H360        H  0.38741171  0.36666778  0.02452874     0.15550
H361        H  0.45128536  0.27029262  0.46495032     0.15260
N362        N  0.97619652  0.33167371  0.44848390     0.74350
O363        O  0.34078781  0.30526463  0.04952131    -0.39100
O364        O  0.32511211  0.32172592  0.99759223    -0.39040
O365        O  0.00057849  0.30988288  0.94487724    -0.39750
O366        O  0.96758457  0.34803141  0.42145303    -0.39810
C367        C  0.13346662  0.15491947  0.45204750    -0.12090
C368        C  0.09701260  0.14779433  0.45036057     0.04910
C369        C  0.07419814  0.17663410  0.45387674    -0.07380
C370        C  0.08891900  0.21127533  0.46157883    -0.08120
C371        C  0.12610323  0.21943900  0.46236179    -0.02680
C372        C  0.14790918  0.18968948  0.45683297     0.04140
N373        N  0.18528033  0.19392569  0.45335269     0.66650
H374        H  0.15124727  0.13306828  0.44986604     0.15550
H375        H  0.07048801  0.23199112  0.46249998     0.15260
N376        N  0.03629971  0.17174171  0.44768493     0.74350
O377        O  0.20455728  0.18558507  0.47883132    -0.39100
O378        O  0.19743727  0.19124809  0.42248694    -0.39040
O379        O  0.01641966  0.19775007  0.95096874    -0.39750
O380        O  0.02339037  0.14329410  0.43345440    -0.39810
C381        C  0.10635391  0.34759055  0.44802950    -0.12090
C382        C  0.07235120  0.34693706  0.46243401     0.04910
C383        C  0.06335652  0.32015053  0.48707380    -0.07380
C384        C  0.08554343  0.29077027  0.48897648    -0.08120
C385        C  0.11919679  0.29132221  0.47237758    -0.02680
C386        C  0.13109076  0.32539515  0.46117796     0.04140
N387        N  0.16508995  0.34122603  0.47164300     0.66650
H388        H  0.11600660  0.37105094  0.43464680     0.15550
H389        H  0.07739824  0.26923832  0.50548473     0.15260
N390        N  0.03384203  0.32294277  0.51121612     0.74350
O391        O  0.17964319  0.36521245  0.45346504    -0.39100
O392        O  0.17642192  0.33730373  0.50257281    -0.39040
O393        O  0.02090051  0.35254253  0.51871882    -0.39750
O394        O  0.02286285  0.29628553  0.02796775    -0.39810
C395        C  0.48237588  0.07007769  0.19734962    -0.12090
C396        C  0.00509106  0.10083289  0.20323405     0.04910
C397        C  0.02286592  0.11364624  0.17277413    -0.07380
C398        C  0.02157956  0.09396871  0.14073225    -0.08120
C399        C  0.00050646  0.06228229  0.13507116    -0.02680
C400        C  0.47918184  0.05119958  0.16409537     0.04140
N401        N  0.45291037  0.02244383  0.16067311     0.66650
H402        H  0.46555684  0.06116450  0.21863094     0.15550
H403        H  0.03684046  0.10522899  0.11934736     0.15260
N404        N  0.04022337  0.14813855  0.17249940     0.74350
O405        O  0.44281438  0.00641062  0.18782379    -0.39100
O406        O  0.43382943  0.01891936  0.13327972    -0.39040
O407        O  0.07302903  0.15076108  0.16562331    -0.39750
O408        O  0.02154566  0.17448885  0.16757438    -0.39810
C409        C  0.46282818  0.09486849  0.28712949    -0.12090
C410        C  0.99666861  0.09463712  0.27020140     0.04910
C411        C  0.02147082  0.07254783  0.28560941    -0.07380
C412        C  0.01772623  0.06454419  0.32100112    -0.08120
C413        C  0.98826276  0.07465545  0.34122504    -0.02680
C414        C  0.45894725  0.08801670  0.32334498     0.04140
N415        N  0.42723207  0.09884588  0.34127198     0.66650
H416        H  0.44013601  0.10465529  0.27348016     0.15550
H417        H  0.03818823  0.04940804  0.33277979     0.15260
N418        N  0.04695326  0.05343362  0.26539776     0.74350
O419        O  0.41054120  0.12465406  0.33028136    -0.39100
O420        O  0.41344302  0.08072244  0.36539265    -0.39040
O421        O  0.07690042  0.04766643  0.27870601    -0.39750
O422        O  0.03687457  0.03568406  0.23810703    -0.39810
C423        C  0.43492129  0.19014565  0.27348853    -0.12090
C424        C  0.41307612  0.18969147  0.24368142     0.04910
C425        C  0.42438566  0.17184464  0.21259521    -0.07380
C426        C  0.45613774  0.15472055  0.21205000    -0.08120
C427        C  0.47717487  0.15087703  0.24242309    -0.02680
C428        C  0.46623660  0.17037001  0.27441447     0.04140
N429        N  0.48418848  0.16928605  0.30850386     0.66650
H430        H  0.42596111  0.20413471  0.29703917     0.15550
H431        H  0.46207598  0.14213509  0.18698092     0.15260
N432        N  0.40309050  0.16869259  0.18108817     0.74350
O433        O  0.47100624  0.18419511  0.33551806    -0.39100
O434        O  0.51304662  0.15411988  0.31244176    -0.39040
O435        O  0.41593004  0.18084027  0.15304710    -0.39750
O436        O  0.37959121  0.14382455  0.17844282    -0.39810
C437        C  0.07487322  0.11800633  0.23765493    -0.12090
C438        C  0.04577478  0.13933928  0.24637849     0.04910
C439        C  0.05571152  0.17564141  0.25704562    -0.07380
C440        C  0.09165003  0.18575893  0.26418943    -0.08120
C441        C  0.11945175  0.16369273  0.25569254    -0.02680
C442        C  0.11072754  0.12963015  0.24103540     0.04140
N443        N  0.13751825  0.10729161  0.22661541     0.66650
H444        H  0.07005268  0.09308520  0.22347490     0.15550
H445        H  0.09829828  0.21313543  0.27217654     0.15260
N446        N  0.03148763  0.20405846  0.25802176     0.74350
O447        O  0.13464159  0.07415068  0.23016006    -0.39100
O448        O  0.15988720  0.11940753  0.20488121    -0.39040
O449        O  0.03264026  0.22618944  0.28384284    -0.39750
O450        O  0.01673251  0.21274447  0.22986447    -0.39810
C451        C  0.50648223  0.12194260  0.74049697    -0.02310
O452        O  0.46472981  0.05881952  0.89869099    -0.86310
O453        O  0.12713020  0.46954928  0.95374328    -0.86480
O454        O  0.08153462  0.08745744  0.92888601    -0.88150
O455        O  0.04366504  0.48923369  0.86162477    -0.86900
O456        O  0.01029050  0.43870600  0.87440686    -0.86490
O457        O  0.07327293  0.10545209  0.98699217    -0.87870
O458        O  0.11641100  0.50950193  0.91101430    -0.86340
O459        O  0.02346564  0.07117138  0.89113350    -0.85930
Zr460      Zr  0.05475488  0.02564626  0.91857176     2.84310
O461        O  0.05350615  0.46609085  0.93540298    -1.07910
O462        O  0.02008233  0.05757811  0.95886017    -1.08640
C463        C  0.99148514  0.06901378  0.87965493     1.06790
C464        C  0.13661962  0.48800150  0.92661586     1.06740
C465        C  0.08342968  0.11080883  0.95525299     1.09720
C466        C  0.02716020  0.45890914  0.85265719     1.07500
H467        H  0.10115515  0.03492338  0.97612791     0.33060
O468        O  0.07697149  0.02531479  0.97627721    -1.28860
H469        H  0.48608054  0.50063610  0.89557342     0.32730
O470        O  0.99628877  0.50115706  0.91895904    -1.30540
O471        O  0.07282977  0.44648703  0.55494474    -0.86310
O472        O  0.40796152  0.03007098  0.99651392    -0.87800
O473        O  0.10268620  0.04876329  0.54454562    -0.86380
O474        O  0.03008661  0.38910932  0.94364600    -0.86430
O475        O  0.43606889  0.44941429  0.90824566    -0.86150
O476        O  0.00416802  0.11163817  0.51546724    -0.85950
O477        O  0.48539131  0.01442295  0.58927197    -0.86320
O478        O  0.45368295  0.41251110  0.52181363    -0.85790
O479        O  0.02316636  0.06137706  0.57697864    -0.86850
O480        O  0.45602459  0.39992773  0.96226227    -0.86010
O481        O  0.12009659  0.49402683  0.52492108    -0.86410
O482        O  0.46113576  0.09448760  0.97548973    -0.86130
O483        O  0.41704881  0.50415426  0.92616797    -0.85780
O484        O  0.07560794  0.40462695  0.98223136    -0.86190
O485        O  0.01578512  0.44994385  0.57611661    -0.86480
O486        O  0.41930795  0.49117686  0.53986625    -0.87820
Zr487      Zr  0.07402943  0.46647079  0.99337451     2.83100
Zr488      Zr  0.46200972  0.03432869  0.95840847     2.83500
Zr489      Zr  0.04257000  0.05841015  0.51641826     2.84090
Zr490      Zr  0.99468253  0.44280377  0.93662313     2.83360
Zr491      Zr  0.48045956  0.47560184  0.53328037     2.84220
O492        O  0.45922596  0.47586078  0.97543662    -1.08390
O493        O  0.03925310  0.49941866  0.53215529    -1.07890
C494        C  0.04874028  0.44367814  0.57925204     1.06770
C495        C  0.39880543  0.01191695  0.52390512     1.09380
C496        C  0.12499301  0.02299687  0.54250459     1.06940
C497        C  0.05725195  0.38205956  0.96306070     1.07300
C498        C  0.41339546  0.47438217  0.90954462     1.06880
C499        C  0.47571307  0.11736867  0.99712710     1.06440
C500        C  0.00262357  0.04427298  0.59826795     1.06860
C501        C  0.44835596  0.39142113  0.49367462     1.06370
H502        H  0.46865081  0.04905455  0.53114940     0.33050
O503        O  0.48338002  0.03475009  0.51601501    -1.29490
H504        H  0.01617460  0.41905366  0.50367694     0.33070
O505        O  0.01603230  0.44258815  0.99474382    -1.30870
C506        C  0.26366704  0.00589645  0.60407450    -0.02310
O507        O  0.17772669  0.18615221  0.77602466    -0.86310
O508        O  0.24820033  0.27774463  0.61357447    -0.86480
O509        O  0.15139890  0.26047700  0.68715443    -0.88150
O510        O  0.20945519  0.16479740  0.65897656    -0.86900
O511        O  0.26664574  0.14906502  0.66979185    -0.86490
O512        O  0.16644351  0.30656999  0.72546774    -0.87870
O513        O  0.20125127  0.23954875  0.62647629    -0.86340
O514        O  0.15943524  0.19165188  0.71849049    -0.85930
Zr515      Zr  0.20467840  0.22420140  0.68721032     2.84310
O516        O  0.26379583  0.22567684  0.66818850    -1.07910
O517        O  0.20358138  0.24806866  0.74474736    -1.08640
C518        C  0.15492499  0.18117410  0.75013043     1.06790
C519        C  0.21826922  0.26024679  0.60557360     1.06740
C520        C  0.14461811  0.28959392  0.70443798     1.09720
C521        C  0.23550041  0.14349845  0.65687271     1.07500
H522        H  0.21419286  0.29700203  0.67056521     0.33060
O523        O  0.22829761  0.28280635  0.68551814    -1.28860
H524        H  0.22759279  0.16675115  0.72629214     0.32730
O525        O  0.23751628  0.19075117  0.72584724    -1.30540
O526        O  0.35140690  0.31168548  0.67665046    -0.86310
O527        O  0.28111274  0.22389828  0.83481733    -0.87800
O528        O  0.23733249  0.36093246  0.70783541    -0.86380
O529        O  0.32865463  0.19429206  0.64984567    -0.86430
O530        O  0.28792520  0.13997448  0.74584474    -0.86150
O531        O  0.19462932  0.30374738  0.79942207    -0.85950
O532        O  0.30783347  0.33928740  0.77816420    -0.86320
O533        O  0.37151241  0.23585443  0.75920031    -0.85790
O534        O  0.24863176  0.34472635  0.78599420    -0.86850
O535        O  0.35378235  0.18481433  0.72858831    -0.86010
O536        O  0.27440850  0.34598856  0.66232367    -0.86410
O537        O  0.20362042  0.24929105  0.82263481    -0.86130
O538        O  0.25314300  0.15627226  0.79287450    -0.85780
O539        O  0.32282593  0.25005084  0.62820741    -0.86190
O540        O  0.36678306  0.30725813  0.73500038    -0.86480
O541        O  0.32529517  0.26545533  0.82371696    -0.87820
Zr542      Zr  0.28818666  0.28431333  0.66729062     2.83100
Zr543      Zr  0.23824369  0.21596312  0.78307204     2.83500
Zr544      Zr  0.22663014  0.30585437  0.74288335     2.84090
Zr545      Zr  0.29603860  0.19191264  0.70662601     2.83360
Zr546      Zr  0.31946907  0.27551238  0.76212613     2.84220
O547        O  0.29683360  0.21676937  0.76359904    -1.08390
O548        O  0.28587467  0.30876555  0.72433311    -1.07890
C549        C  0.37390920  0.31582327  0.70334447     1.06770
C550        C  0.30930544  0.24362633  0.84422162     1.09380
C551        C  0.25651157  0.36876757  0.68022453     1.06940
C552        C  0.33410631  0.21850245  0.62668316     1.07300
C553        C  0.27165264  0.13390403  0.77552628     1.06880
C554        C  0.19151764  0.28043529  0.82363800     1.06440
C555        C  0.27997605  0.35771431  0.78532993     1.06860
C556        C  0.37718840  0.20470410  0.74476168     1.06370
H557        H  0.26095447  0.28484768  0.80543054     0.33050
O558        O  0.26102711  0.27429258  0.78185751    -1.29490
H559        H  0.34465193  0.24851773  0.69712948     0.33070
O560        O  0.32045147  0.24977422  0.70527419    -1.30870
C561        C  0.14358291  0.25876082  0.96535834    -0.02310
C562        C  0.02147771  0.38037062  0.71126744    -0.02310
C563        C  0.38528274  0.24256544  0.98618251    -0.02310
C564        C  0.27642836  0.49928975  0.85342681    -0.02310
C565        C  0.18679364  0.28801132  0.91942692    -0.12090
C566        C  0.15654982  0.26601071  0.92635861     0.04910
C567        C  0.13258164  0.26044269  0.89656770    -0.07380
C568        C  0.14247254  0.27077424  0.86284371    -0.08120
C569        C  0.17472168  0.28857946  0.85697220    -0.02680
C570        C  0.19665029  0.29859515  0.88575438     0.04140
N571        N  0.22953830  0.31883238  0.88112075     0.66650
H572        H  0.20078208  0.30175756  0.93994548     0.15550
H573        H  0.12530421  0.26321018  0.84051915     0.15260
N574        N  0.09672782  0.24701285  0.89950042     0.74210
O575        O  0.25527200  0.31585027  0.90212294    -0.39100
O576        O  0.23226238  0.34143524  0.85741045    -0.39040
O577        O  0.07296232  0.26852396  0.90734437    -0.39750
O578        O  0.08767817  0.21824790  0.88322544    -0.39810
C579        C  0.22091149  0.26990313  0.54008089    -0.12090
C580        C  0.20081876  0.26294350  0.56999382     0.04910
C581        C  0.16412297  0.25441565  0.56499359    -0.07380
C582        C  0.14946548  0.25138369  0.53095188    -0.08120
C583        C  0.16858205  0.25908303  0.49977929    -0.02680
C584        C  0.20620487  0.26743582  0.50552868     0.04140
N585        N  0.23141231  0.27254180  0.97816929     0.66650
H586        H  0.24905393  0.27617645  0.54353241     0.15550
H587        H  0.12163148  0.24348501  0.52922734     0.15260
N588        N  0.14043541  0.25078869  0.59437722     0.74350
O589        O  0.25128903  0.30041801  0.97873463    -0.39100
O590        O  0.23923780  0.24677479  0.95827273    -0.39040
O591        O  0.13803251  0.27631222  0.61653246    -0.39750
O592        O  0.11760865  0.22528405  0.59470638    -0.39810
C593        C  0.36194386  0.25414611  0.88467510    -0.12090
C594        C  0.32638411  0.24186064  0.88050622     0.04910
C595        C  0.31047104  0.22622311  0.90996550    -0.07380
C596        C  0.32909242  0.22621379  0.94267670    -0.08120
C597        C  0.36417820  0.24098141  0.94859343    -0.02680
C598        C  0.38129904  0.25136594  0.91635242     0.04140
N599        N  0.41911680  0.25358628  0.91260129     0.66650
H600        H  0.37645107  0.26308680  0.86173263     0.15550
H601        H  0.31743733  0.20899476  0.96105289     0.15260
N602        N  0.27617153  0.20846770  0.90689370     0.74350
O603        O  0.43620856  0.22567602  0.91476707    -0.39100
O604        O  0.43337731  0.27946090  0.89684185    -0.39040
O605        O  0.27026421  0.17914988  0.92132299    -0.39750
O606        O  0.25068445  0.22391047  0.89323806    -0.39810
C607        C  0.39168970  0.24171942  0.55294182    -0.12090
C608        C  0.36816739  0.23463172  0.52371266     0.04910
C609        C  0.33486623  0.21719850  0.53234344    -0.07380
C610        C  0.33053257  0.20169665  0.56541963    -0.08120
C611        C  0.35302632  0.21136475  0.59380959    -0.02680
C612        C  0.38452622  0.23148212  0.58729925     0.04140
N613        N  0.40861259  0.24402603  0.61524182     0.66650
H614        H  0.41575601  0.25772726  0.54965309     0.15550
H615        H  0.30464804  0.18993349  0.57169160     0.15260
N616        N  0.30230302  0.22483229  0.51537669     0.74350
O617        O  0.44128600  0.24944556  0.60881710    -0.39100
O618        O  0.39744144  0.25171770  0.64580866    -0.39040
O619        O  0.27611592  0.20271073  0.51508533    -0.39750
O620        O  0.29806770  0.25542019  0.50447262    -0.39810
C621        C  0.25040347  0.41555077  0.79038624    -0.12090
C622        C  0.28170809  0.39616379  0.79287603     0.04910
C623        C  0.31207478  0.41309946  0.80575352    -0.07380
C624        C  0.30954447  0.44632314  0.82122774    -0.08120
C625        C  0.27728824  0.46567086  0.82557650    -0.02680
C626        C  0.24714593  0.44990567  0.80600465     0.04140
N627        N  0.21260837  0.46569307  0.80279326     0.66650
H628        H  0.22723691  0.40270338  0.77767896     0.15550
H629        H  0.33496541  0.45428455  0.83098831     0.15260
N630        N  0.34553216  0.39609152  0.80603822     0.74350
O631        O  0.20445322  0.49320804  0.82021621    -0.39100
O632        O  0.18995445  0.45243905  0.78088669    -0.39040
O633        O  0.36155741  0.39012183  0.77734328    -0.39750
O634        O  0.36153658  0.39228612  0.83491772    -0.39810
C635        C  0.26182607  0.03662827  0.79903404    -0.12090
C636        C  0.27435298  0.03646761  0.83446597     0.04910
C637        C  0.28822638  0.07102385  0.84825844    -0.07380
C638        C  0.28985420  0.10037457  0.82630174    -0.08120
C639        C  0.27453594  0.09950428  0.79288583    -0.02680
C640        C  0.25666848  0.06795161  0.78103923     0.04140
N641        N  0.22903437  0.06818776  0.75480889     0.66650
H642        H  0.25432550  0.01259983  0.78472998     0.15550
H643        H  0.30199796  0.12528995  0.83647216     0.15260
N644        N  0.30225423  0.07877906  0.88320402     0.74350
O645        O  0.21712747  0.03939858  0.74042548    -0.39100
O646        O  0.21043984  0.09512833  0.75311859    -0.39040
O647        O  0.33321761  0.07011974  0.89091779    -0.39750
O648        O  0.29092926  0.10568679  0.89965928    -0.39810
C649        C  0.42051687  0.36036352  0.68101899    -0.12090
C650        C  0.41168544  0.33043512  0.70015357     0.04910
C651        C  0.43826006  0.31797912  0.72280893    -0.07380
C652        C  0.47071702  0.33696194  0.72844962    -0.08120
C653        C  0.48167654  0.36504727  0.70738401    -0.02680
C654        C  0.45462084  0.37768408  0.68394105     0.04140
N655        N  0.46036249  0.40790235  0.66254191     0.66650
H656        H  0.40061449  0.37104223  0.66416419     0.15550
H657        H  0.48898547  0.32721956  0.74737934     0.15260
N658        N  0.43433734  0.28347013  0.73696479     0.74350
O659        O  0.45639952  0.40434681  0.62947966    -0.39100
O660        O  0.45971799  0.43853479  0.67668410    -0.39040
O661        O  0.43006813  0.25730064  0.71558092    -0.39750
O662        O  0.44400632  0.27836407  0.76826511    -0.39810
C663        C  0.04740806  0.31628531  0.70466387    -0.12090
C664        C  0.05252452  0.35371420  0.71008563     0.04910
C665        C  0.08858849  0.36780225  0.70856219    -0.07380
C666        C  0.11613576  0.34551730  0.70236722    -0.08120
C667        C  0.11128310  0.30863577  0.70015092    -0.02680
C668        C  0.07625697  0.29373909  0.69923543     0.04140
N669        N  0.06897662  0.25698882  0.68979088     0.66650
H670        H  0.02108271  0.30417227  0.70201656     0.15550
H671        H  0.14272988  0.35773932  0.70086481     0.15260
N672        N  0.09833332  0.40510257  0.71085198     0.74350
O673        O  0.04324802  0.24821179  0.66940688    -0.39100
O674        O  0.08803578  0.23319250  0.70124253    -0.39040
O675        O  0.10070881  0.42090122  0.74069058    -0.39750
O676        O  0.11520151  0.41858882  0.68546251    -0.39810
C677        C  0.28952116  0.44905620  0.62886333    -0.12090
C678        C  0.26160269  0.47330890  0.63043860     0.04910
C679        C  0.23255199  0.46361092  0.65441153    -0.07380
C680        C  0.23194236  0.42991150  0.67072070    -0.08120
C681        C  0.25951978  0.40628859  0.66701362    -0.02680
C682        C  0.28975951  0.41779620  0.64785285     0.04140
N683        N  0.32193814  0.39857453  0.64839974     0.66650
H684        H  0.31269589  0.45387543  0.61286880     0.15550
H685        H  0.20911281  0.42169545  0.68626455     0.15260
N686        N  0.20393463  0.48654702  0.66444187     0.74350
O687        O  0.34060880  0.39539886  0.62090409    -0.39100
O688        O  0.33425418  0.38919435  0.67750986    -0.39040
O689        O  0.18742470  0.48159625  0.69296899    -0.39750
O690        O  0.19381090  0.51082862  0.64534655    -0.39810
C691        C  0.23344269  0.08126232  0.66449246    -0.12090
C692        C  0.23187202  0.10847297  0.64013900     0.04910
C693        C  0.24934735  0.10437373  0.60767319    -0.07380
C694        C  0.26753158  0.07341235  0.60106289    -0.08120
C695        C  0.26284414  0.04356695  0.62251029    -0.02680
C696        C  0.25336398  0.05114258  0.65783571     0.04140
N697        N  0.27510992  0.04002571  0.68641645     0.66650
H698        H  0.22651954  0.08753263  0.69139723     0.15550
H699        H  0.28306721  0.07155041  0.57721641     0.15260
N700        N  0.25089005  0.13225451  0.58244256     0.74350
O701        O  0.29418344  0.06298835  0.70359734    -0.39100
O702        O  0.27321789  0.00875842  0.69703598    -0.39040
O703        O  0.27160637  0.13051217  0.55631571    -0.39750
O704        O  0.22894085  0.15666391  0.58391350    -0.39810
C705        C  0.04961401  0.39371460  0.61442237    -0.12090
C706        C  0.05679837  0.42981493  0.61343896     0.04910
C707        C  0.05290687  0.45144536  0.64437702    -0.07380
C708        C  0.04018513  0.43593320  0.67557872    -0.08120
C709        C  0.03042224  0.39943200  0.67626372    -0.02680
C710        C  0.03411541  0.37864090  0.64374136     0.04140
N711        N  0.02341629  0.34166835  0.63959421     0.66650
H712        H  0.05109300  0.37761255  0.59017132     0.15550
H713        H  0.03899207  0.45233709  0.69937945     0.15260
N714        N  0.06140895  0.48908104  0.64417335     0.74350
O715        O  0.99081613  0.33259465  0.63759709    -0.39100
O716        O  0.04551513  0.32032526  0.62711005    -0.39040
O717        O  0.05304911  0.50906512  0.66994810    -0.39750
O718        O  0.07963524  0.50222233  0.61952380    -0.39810
C719        C  0.00374070  0.43250234  0.75485250    -0.12090
C720        C  0.02420125  0.40220195  0.74853608     0.04910
C721        C  0.04408014  0.39159420  0.77894603    -0.07380
C722        C  0.04720248  0.41349480  0.80976083    -0.08120
C723        C  0.02789569  0.44397566  0.81511491    -0.02680
C724        C  0.00399045  0.45258136  0.78766813     0.04140
N725        N  0.47828595  0.47971791  0.79290477     0.66650
H726        H  0.48609105  0.43988426  0.73428631     0.15550
H727        H  0.06307533  0.40467109  0.83148497     0.15260
N728        N  0.06027974  0.35796853  0.78087709     0.74350
O729        O  0.47363697  0.49423744  0.82293122    -0.39100
O730        O  0.45749456  0.48689323  0.76816388    -0.39040
O731        O  0.09302988  0.35726138  0.78812905    -0.39750
O732        O  0.04085512  0.33049908  0.78564630    -0.39810
C733        C  0.19580098  0.01735676  0.91785867    -0.12090
C734        C  0.17402675  0.48670780  0.91296733     0.04910
C735        C  0.18881484  0.45693755  0.89568134    -0.07380
C736        C  0.22391962  0.46033667  0.88173956    -0.08120
C737        C  0.24392062  0.49342851  0.88099233    -0.02680
C738        C  0.23107068  0.02000059  0.90511381     0.04140
N739        N  0.25449714  0.04496007  0.92371944     0.66650
H740        H  0.18584455  0.03877461  0.93434192     0.15550
H741        H  0.23482568  0.43686352  0.86980425     0.15260
N742        N  0.16836230  0.42395404  0.89000042     0.74350
O743        O  0.24221468  0.07303508  0.93708453    -0.39100
O744        O  0.28298817  0.03422686  0.93632088    -0.39040
O745        O  0.13478727  0.42319241  0.89030637    -0.39750
O746        O  0.18366737  0.39595474  0.88095083    -0.39810
C747        C  0.37781183  0.49791337  0.86500847    -0.12090
C748        C  0.38017146  0.47206268  0.89035077     0.04910
C749        C  0.34909997  0.45811080  0.90622704    -0.07380
C750        C  0.31634410  0.47221259  0.89766037    -0.08120
C751        C  0.31304591  0.49851293  0.87208143    -0.02680
C752        C  0.34535485  0.51056767  0.85463879     0.04140
N753        N  0.34547660  0.02845004  0.82165782     0.66650
H754        H  0.40193184  0.50824421  0.85266915     0.15550
H755        H  0.29276918  0.46015511  0.90915203     0.15260
N756        N  0.35000918  0.42977220  0.93090325     0.74350
O757        O  0.36117416  0.05847841  0.81966048    -0.39100
O758        O  0.33825676  0.01105006  0.79330558    -0.39040
O759        O  0.37729608  0.42513927  0.94935718    -0.39750
O760        O  0.32298181  0.40925510  0.93468278    -0.39810
C761        C  0.22420347  0.03154083  0.55444865    -0.12090
C762        C  0.23016828  0.00405399  0.57825959     0.04910
C763        C  0.20126640  0.47931351  0.58122194    -0.07380
C764        C  0.16669174  0.49111950  0.57676593    -0.08120
C765        C  0.16013647  0.02316534  0.55982884    -0.02680
C766        C  0.18981924  0.04223278  0.54593381     0.04140
N767        N  0.18618705  0.07111602  0.52219829     0.66650
H768        H  0.24645452  0.04510572  0.54226362     0.15550
H769        H  0.14446629  0.47285979  0.58214818     0.15260
N770        N  0.20652059  0.44206144  0.58491594     0.74350
O771        O  0.21179811  0.09327259  0.51804932    -0.39100
O772        O  0.15870411  0.07350624  0.00341756    -0.39040
O773        O  0.18199694  0.42199642  0.59684601    -0.39750
O774        O  0.23347392  0.42825976  0.57129398    -0.39810
C775        C  0.30011092  0.99702635  0.54602867    -0.12090
C776        C  0.29955789  0.00672908  0.58239008     0.04910
C777        C  0.33252647  0.02013998  0.59760603    -0.07380
C778        C  0.36294194  0.02458886  0.57667280    -0.08120
C779        C  0.36309108  0.01526941  0.54064834    -0.02680
C780        C  0.33085140  0.00190026  0.52496322     0.04140
N781        N  0.32849908  0.99293226  0.98792855     0.66650
H782        H  0.27621508  0.98579555  0.53344016     0.15550
H783        H  0.38744464  0.03456393  0.58913553     0.15260
N784        N  0.33605454  0.02963327  0.63439731     0.74350
O785        O  0.30372991  0.47199975  0.97648866    -0.39100
O786        O  0.34650624  0.01073008  0.96619287    -0.39040
O787        O  0.33986376  0.50555034  0.65620936    -0.39750
O788        O  0.34554683  0.06115802  0.64339517    -0.39810
C789        C  0.44683833  0.21488567  0.00312395    -0.12090
C790        C  0.41306653  0.21190485  0.98500673     0.04910
C791        C  0.40109683  0.17649906  0.47566569    -0.07380
C792        C  0.42125925  0.14792858  0.98314501    -0.08120
C793        C  0.45528183  0.15099534  0.99865215    -0.02680
C794        C  0.46736514  0.18512961  0.01072387     0.04140
N795        N  0.99873464  0.19007552  0.03235941     0.66650
H796        H  0.45683188  0.24008483  0.01405910     0.15550
H797        H  0.40916111  0.12213963  0.47576313     0.15260
N798        N  0.36789610  0.16745535  0.45871368     0.74350
O799        O  0.01790816  0.21823277  0.03074242    -0.39100
O800        O  0.00351323  0.16977786  0.55757401    -0.39040
O801        O  0.36767127  0.16252805  0.92555294    -0.39750
O802        O  0.34365683  0.15227610  0.47642621    -0.39810
C803        C  0.40140411  0.34551278  0.51133285    -0.12090
C804        C  0.43397226  0.35359731  0.49520801     0.04910
C805        C  0.44959496  0.32554289  0.97507369    -0.07380
C806        C  0.43592298  0.29059966  0.97721171    -0.08120
C807        C  0.40193843  0.28213692  0.99037308    -0.02680
C808        C  0.38418981  0.31146527  0.50679971     0.04140
N809        N  0.34788226  0.30852821  0.51721548     0.66650
H810        H  0.38740356  0.36667855  0.52453022     0.15550
H811        H  0.45128799  0.27027753  0.96494946     0.15260
N812        N  0.97620594  0.33165651  0.94848701     0.74350
O813        O  0.34078660  0.30526857  0.54952604    -0.39100
O814        O  0.32510679  0.32173790  0.49760121    -0.39040
O815        O  0.00057052  0.30990190  0.44487248    -0.39750
O816        O  0.96759633  0.34801408  0.92145528    -0.39810
C817        C  0.13347289  0.15490374  0.95204356    -0.12090
C818        C  0.09701856  0.14778060  0.95035843     0.04910
C819        C  0.07420536  0.17662088  0.95387674    -0.07380
C820        C  0.08892785  0.21126101  0.96157894    -0.08120
C821        C  0.12611237  0.21942295  0.96236024    -0.02680
C822        C  0.14791709  0.18967287  0.95682991     0.04140
N823        N  0.18528849  0.19390740  0.95335064     0.66650
H824        H  0.15125237  0.13305164  0.94986100     0.15550
H825        H  0.07049760  0.23197738  0.96250112     0.15260
N826        N  0.03630640  0.17172994  0.94768746     0.74350
O827        O  0.20456386  0.18557231  0.97883257    -0.39100
O828        O  0.19744683  0.19122167  0.92248598    -0.39040
O829        O  0.01641230  0.19776178  0.45096121    -0.39750
O830        O  0.02339550  0.14328412  0.93345459    -0.39810
C831        C  0.10635786  0.34756670  0.94802127    -0.12090
C832        C  0.07235790  0.34691467  0.96243170     0.04910
C833        C  0.06336677  0.32013122  0.98707587    -0.07380
C834        C  0.08555506  0.29075253  0.98897954    -0.08120
C835        C  0.11920622  0.29130431  0.97237646    -0.02680
C836        C  0.13109721  0.32537629  0.96117252     0.04140
N837        N  0.16509434  0.34121214  0.97163752     0.66650
H838        H  0.11600785  0.37102520  0.93463379     0.15550
H839        H  0.07741183  0.26922146  0.00548967     0.15260
N840        N  0.03385406  0.32292454  0.01122030     0.74350
O841        O  0.17964441  0.36520009  0.95345927    -0.39100
O842        O  0.17642816  0.33729035  0.00256675    -0.39040
O843        O  0.02090878  0.35252359  0.01871795    -0.39750
O844        O  0.02284597  0.29630154  0.52795756    -0.39810
C845        C  0.48237634  0.07007965  0.69735100    -0.12090
C846        C  0.00509169  0.10083447  0.70323626     0.04910
C847        C  0.02286626  0.11364902  0.67277665    -0.07380
C848        C  0.02157941  0.09397289  0.64073407    -0.08120
C849        C  0.00050608  0.06228683  0.63507210    -0.02680
C850        C  0.47918201  0.05120290  0.66409612     0.04140
N851        N  0.45291083  0.02244708  0.66067301     0.66650
H852        H  0.46555740  0.06116572  0.71863212     0.15550
H853        H  0.03683988  0.10523413  0.61934938     0.15260
N854        N  0.04022259  0.14814184  0.67250267     0.74350
O855        O  0.44281717  0.00641108  0.68782281    -0.39100
O856        O  0.43382774  0.01892530  0.63328090    -0.39040
O857        O  0.07302876  0.15076534  0.66562922    -0.39750
O858        O  0.02154426  0.17449100  0.66757435    -0.39810
C859        C  0.46282861  0.09487074  0.78713330    -0.12090
C860        C  0.99666829  0.09463794  0.77020371     0.04910
C861        C  0.02146918  0.07254525  0.78560911    -0.07380
C862        C  0.01772425  0.06453768  0.82099976    -0.08120
C863        C  0.98826275  0.07465013  0.84122585    -0.02680
C864        C  0.45894836  0.08801698  0.82334852     0.04140
N865        N  0.42723561  0.09884980  0.84127787     0.66650
H866        H  0.44013656  0.10465956  0.77348547     0.15550
H867        H  0.03818490  0.04939801  0.83277606     0.15260
N868        N  0.04695139  0.05343245  0.76539588     0.74350
O869        O  0.41054503  0.12465785  0.83028651    -0.39100
O870        O  0.41344917  0.08073126  0.86540350    -0.39040
O871        O  0.07689892  0.04766508  0.77870323    -0.39750
O872        O  0.03687200  0.03568312  0.73810529    -0.39810
C873        C  0.43492047  0.19014669  0.77348886    -0.12090
C874        C  0.41307578  0.18969190  0.74368131     0.04910
C875        C  0.42438614  0.17184529  0.71259544    -0.07380
C876        C  0.45613814  0.15472129  0.71205108    -0.08120
C877        C  0.47717485  0.15087816  0.74242460    -0.02680
C878        C  0.46623620  0.17037169  0.77441547     0.04140
N879        N  0.48418799  0.16928871  0.80850500     0.66650
H880        H  0.42595972  0.20413584  0.79703921     0.15550
H881        H  0.46207661  0.14213576  0.68698214     0.15260
N882        N  0.40309209  0.16869390  0.68108764     0.74350
O883        O  0.47100652  0.18419993  0.83551843    -0.39100
O884        O  0.51304528  0.15412124  0.81244375    -0.39040
O885        O  0.41593218  0.18084317  0.65304751    -0.39750
O886        O  0.37959332  0.14382549  0.67844064    -0.39810
C887        C  0.07487306  0.11800707  0.73765769    -0.12090
C888        C  0.04577469  0.13934018  0.74638121     0.04910
C889        C  0.05571153  0.17564249  0.75704754    -0.07380
C890        C  0.09165014  0.18576027  0.76419032    -0.08120
C891        C  0.11945169  0.16369382  0.75569351    -0.02680
C892        C  0.11072737  0.12963091  0.74103747     0.04140
N893        N  0.13751790  0.10729224  0.72661732     0.66650
H894        H  0.07005253  0.09308611  0.72347744     0.15550
H895        H  0.09829850  0.21313699  0.77217653     0.15260
N896        N  0.03148769  0.20405956  0.75802320     0.74350
O897        O  0.13464154  0.07415140  0.73016267    -0.39100
O898        O  0.15988630  0.11940784  0.70488241    -0.39040
O899        O  0.03263998  0.22619050  0.78384432    -0.39750
O900        O  0.01673373  0.21274597  0.72986543    -0.39810
C901        C  0.50648488  0.62194798  0.24048828    -0.02310
O902        O  0.46472279  0.55883683  0.39868826    -0.86310
O903        O  0.12712348  0.96957367  0.45373964    -0.86480
O904        O  0.08152625  0.58746687  0.42888712    -0.88150
O905        O  0.04366140  0.98925338  0.36162496    -0.86900
O906        O  0.01028967  0.93872402  0.37440621    -0.86490
O907        O  0.07326228  0.60546248  0.48699263    -0.87870
O908        O  0.11640416  0.00952940  0.41101367    -0.86340
O909        O  0.02345911  0.57118775  0.39114181    -0.85930
Zr910      Zr  0.05474407  0.52565548  0.41857262     2.84310
O911        O  0.05350225  0.96611373  0.43540053    -1.07910
O912        O  0.02007152  0.55758768  0.45886046    -1.08640
C913        C  0.99148179  0.56902846  0.37965544     1.06790
C914        C  0.13661271  0.98802739  0.42661343     1.06740
C915        C  0.08342050  0.61081902  0.45525379     1.09720
C916        C  0.02715896  0.95892766  0.35265688     1.07500
H917        H  0.10114404  0.53493017  0.47613000     0.33060
O918        O  0.07695976  0.52532313  0.47627875    -1.28860
H919        H  0.48607456  0.00065366  0.39557412     0.32730
O920        O  0.99628167  0.00117728  0.41896025    -1.30540
O921        O  0.07284858  0.94648056  0.05494350    -0.86310
O922        O  0.40794802  0.53008520  0.49651303    -0.87800
O923        O  0.10270117  0.54874146  0.04454091    -0.86380
O924        O  0.03008880  0.88912904  0.44364708    -0.86430
O925        O  0.43606811  0.94942808  0.40824262    -0.86150
O926        O  0.00420641  0.61163881  0.01544421    -0.85950
O927        O  0.48539708  0.51441579  0.08927025    -0.86320
O928        O  0.45370307  0.91249975  0.02181632    -0.85790
O929        O  0.02317406  0.56136802  0.07697503    -0.86850
O930        O  0.45602526  0.89994277  0.46225942    -0.86010
O931        O  0.12011224  0.99402211  0.02491523    -0.86410
O932        O  0.46112730  0.59450057  0.47549039    -0.86130
O933        O  0.41704253  0.00416495  0.42616862    -0.85780
O934        O  0.07561174  0.90465030  0.48222909    -0.86190
O935        O  0.01580376  0.94993468  0.07611556    -0.86480
O936        O  0.41932220  0.99116232  0.03986655    -0.87820
Zr937      Zr  0.07402490  0.96649367  0.49337204     2.83100
Zr938      Zr  0.46199726  0.53434269  0.45840634     2.83500
Zr939      Zr  0.04258434  0.55839274  0.01641636     2.84090
Zr940      Zr  0.99468060  0.94282242  0.43662170     2.83360
Zr941      Zr  0.48047549  0.97559007  0.03328042     2.84220
O942        O  0.45922170  0.97587998  0.47543333    -1.08390
O943        O  0.03926835  0.99940839  0.03215408    -1.07890
C944        C  0.04875938  0.94367125  0.07925114     1.06770
C945        C  0.39881615  0.51190749  0.02390923     1.09380
C946        C  0.12500271  0.52297012  0.04250602     1.06940
C947        C  0.05725617  0.88208098  0.46306031     1.07300
C948        C  0.41339220  0.97439340  0.40954325     1.06880
C949        C  0.47570573  0.61738245  0.49712595     1.06440
C950        C  0.00262832  0.54426706  0.09826430     1.06860
C951        C  0.44837209  0.89141258  0.99367653     1.06370
H952        H  0.46866440  0.54904143  0.03114751     0.33050
O953        O  0.48339276  0.53473434  0.01601474    -1.29490
H954        H  0.01619319  0.91904238  0.00367558     0.33070
O955        O  0.01602924  0.94260623  0.49474201    -1.30870
C956        C  0.26368061  0.50589446  0.10408121    -0.02310
O957        O  0.17772556  0.68615916  0.27601715    -0.86310
O958        O  0.24821267  0.77774504  0.11357037    -0.86480
O959        O  0.15140436  0.76048226  0.18714822    -0.88150
O960        O  0.20946413  0.66479919  0.15897484    -0.86900
O961        O  0.26665531  0.64906863  0.16978991    -0.86490
O962        O  0.16644698  0.80657257  0.22546523    -0.87870
O963        O  0.20126339  0.73954894  0.12647112    -0.86340
O964        O  0.15943767  0.69166116  0.21848221    -0.85930
Zr965      Zr  0.20468482  0.72420570  0.18720543     2.84310
O966        O  0.26380310  0.72568105  0.16818651    -1.07910
O967        O  0.20358479  0.74807175  0.24474263    -1.08640
C968        C  0.15492510  0.68118333  0.25012156     1.06790
C969        C  0.21828267  0.76024575  0.10556855     1.06740
C970        C  0.14462221  0.78959785  0.20443394     1.09720
C971        C  0.23551000  0.64350060  0.15687148     1.07500
H972        H  0.21420039  0.79700594  0.17056111     0.33060
O973        O  0.22830444  0.78281045  0.18551490    -1.28860
H974        H  0.22759630  0.66675499  0.22628791     0.32730
O975        O  0.23752018  0.69075490  0.22584386    -1.30540
O976        O  0.35141368  0.81169128  0.17665248    -0.86310
O977        O  0.28110744  0.72390454  0.33481919    -0.87800
O978        O  0.23733903  0.86093583  0.20783508    -0.86380
O979        O  0.32866217  0.69429692  0.14984506    -0.86430
O980        O  0.28792489  0.63997616  0.24584093    -0.86150
O981        O  0.19463046  0.80374890  0.29941987    -0.85950
O982        O  0.30783090  0.83929064  0.27817832    -0.86320
O983        O  0.37151542  0.73586119  0.25920187    -0.85790
O984        O  0.24862764  0.84472218  0.28600206    -0.86850
O985        O  0.35378360  0.68481836  0.22859543    -0.86010
O986        O  0.27441463  0.84599139  0.16232284    -0.86410
O987        O  0.20361785  0.74929119  0.32263115    -0.86130
O988        O  0.25314058  0.65627271  0.29286949    -0.85780
O989        O  0.32283677  0.75005544  0.12820521    -0.86190
O990        O  0.36678539  0.80726728  0.23500392    -0.86480
O991        O  0.32529191  0.76545911  0.32371739    -0.87820
Zr992      Zr  0.28819472  0.78431702  0.16728938     2.83100
Zr993      Zr  0.23824431  0.71596555  0.28306914     2.83500
Zr994      Zr  0.22663334  0.80585738  0.24288104     2.84090
Zr995      Zr  0.29604364  0.69191717  0.20662559     2.83360
Zr996      Zr  0.31947104  0.77551803  0.26212719     2.84220
O997        O  0.29683567  0.71677413  0.26359893    -1.08390
O998        O  0.28587873  0.80877088  0.22433216    -1.07890
C999        C  0.37391379  0.81583155  0.20334809     1.06770
C1000       C  0.30930005  0.74363289  0.34422324     1.09380
C1001       C  0.25651826  0.86877044  0.18022418     1.06940
C1002       C  0.33411620  0.71850640  0.12668165     1.07300
C1003       C  0.27164985  0.63390424  0.27552096     1.06880
C1004       C  0.19151639  0.78043598  0.32363513     1.06440
C1005       C  0.27997077  0.85771358  0.28534532     1.06860
C1006       C  0.37719050  0.70470964  0.24476548     1.06370
H1007       H  0.26095395  0.78484819  0.30542880     0.33050
O1008       O  0.26102818  0.77429458  0.28185522    -1.29490
H1009       H  0.34465817  0.74852269  0.19713165     0.33070
O1010       O  0.32045728  0.74977888  0.20527526    -1.30870
C1011       C  0.14357979  0.75877142  0.46535992    -0.02310
C1012       C  0.02148374  0.88037973  0.21127024    -0.02310
C1013       C  0.38527896  0.74258300  0.48618352    -0.02310
C1014       C  0.27642199  0.99929591  0.35342919    -0.02310
C1015       C  0.18679192  0.78801581  0.41942536    -0.12090
C1016       C  0.15654673  0.76601798  0.42635919     0.04910
C1017       C  0.13257855  0.76044865  0.39656826    -0.07380
C1018       C  0.14247093  0.77077522  0.36284278    -0.08120
C1019       C  0.17472018  0.78857988  0.35696994    -0.02680
C1020       C  0.19664843  0.79859714  0.38575187     0.04140
N1021       N  0.22953558  0.81883489  0.38111713     0.66650
H1022       H  0.20078204  0.80176212  0.43994260     0.15550
H1023       H  0.12530258  0.76320980  0.34051864     0.15260
N1024       N  0.09672320  0.74702359  0.39950220     0.74210
O1025       O  0.25527306  0.81584685  0.40211341    -0.39100
O1026       O  0.23225355  0.84144683  0.35741500    -0.39040
O1027       O  0.07296099  0.76853807  0.40734691    -0.39750
O1028       O  0.08766916  0.71825965  0.38322758    -0.39810
C1029       C  0.22092878  0.76988609  0.04007349    -0.12090
C1030       C  0.20083417  0.76293843  0.06998793     0.04910
C1031       C  0.16413743  0.75441488  0.06498961    -0.07380
C1032       C  0.14948033  0.75137439  0.03094842    -0.08120
C1033       C  0.16859781  0.75906477  0.99977436    -0.02680
C1034       C  0.20622205  0.76741367  0.00552150     0.04140
N1035       N  0.23140974  0.77254944  0.47817089     0.66650
H1036       H  0.24907214  0.77615475  0.04352414     0.15550
H1037       H  0.12164521  0.74347955  0.02922514     0.15260
N1038       N  0.14044904  0.75080139  0.09437433     0.74350
O1039       O  0.25128706  0.80042517  0.47873427    -0.39100
O1040       O  0.23923521  0.74678056  0.45827663    -0.39040
O1041       O  0.13805491  0.77632995  0.11652521    -0.39750
O1042       O  0.11761504  0.72530341  0.09470937    -0.39810
C1043       C  0.36193539  0.75416199  0.38467787    -0.12090
C1044       C  0.32637699  0.74187198  0.38050896     0.04910
C1045       C  0.31046479  0.72623573  0.40996931    -0.07380
C1046       C  0.32908555  0.72623208  0.44268131    -0.08120
C1047       C  0.36417134  0.74100060  0.44859654    -0.02680
C1048       C  0.38129074  0.75138597  0.41635527     0.04140
N1049       N  0.41910833  0.75361326  0.41260461     0.66650
H1050       H  0.37644234  0.76310319  0.36173546     0.15550
H1051       H  0.31743164  0.70901368  0.46105830     0.15260
N1052       N  0.27616949  0.70847156  0.40689702     0.74350
O1053       O  0.43620458  0.72570533  0.41476578    -0.39100
O1054       O  0.43336413  0.77949199  0.39684784    -0.39040
O1055       O  0.27027107  0.67915105  0.42132389    -0.39750
O1056       O  0.25067764  0.72390678  0.39324095    -0.39810
C1057       C  0.39171152  0.74170549  0.05293732    -0.12090
C1058       C  0.36819330  0.73461441  0.02370541     0.04910
C1059       C  0.33488986  0.71718408  0.03233624    -0.07380
C1060       C  0.33054923  0.70169228  0.06541695    -0.08120
C1061       C  0.35303870  0.71136592  0.09380855    -0.02680
C1062       C  0.38454138  0.73147847  0.08729738     0.04140
N1063       N  0.40862431  0.74402841  0.11524075     0.66650
H1064       H  0.41577493  0.75771771  0.04965179     0.15550
H1065       H  0.30466283  0.68993260  0.07168775     0.15260
N1066       N  0.30232898  0.72481426  0.01536376     0.74350
O1067       O  0.44129889  0.74944468  0.10881956    -0.39100
O1068       O  0.39744972  0.75172601  0.14580497    -0.39040
O1069       O  0.27614530  0.70268845  0.01506566    -0.39750
O1070       O  0.29808973  0.75540391  0.00446606    -0.39810
C1071       C  0.25038729  0.91554501  0.29041367    -0.12090
C1072       C  0.28169641  0.89616314  0.29289715     0.04910
C1073       C  0.31206695  0.91310972  0.30575396    -0.07380
C1074       C  0.30954018  0.94634267  0.32120958    -0.08120
C1075       C  0.27727931  0.96567879  0.32557722    -0.02680
C1076       C  0.24713201  0.94990508  0.30602050     0.04140
N1077       N  0.21259378  0.96569151  0.30281144     0.66650
H1078       H  0.22721731  0.90269233  0.27771770     0.15550
H1079       H  0.33496796  0.95432303  0.33094021     0.15260
N1080       N  0.34552771  0.89610835  0.30603063     0.74350
O1081       O  0.20444574  0.99321671  0.32022166    -0.39100
O1082       O  0.18993210  0.95242627  0.28091880    -0.39040
O1083       O  0.36154426  0.89013612  0.27733130    -0.39750
O1084       O  0.36154418  0.89231514  0.33490578    -0.39810
C1085       C  0.26181721  0.53662752  0.29902952    -0.12090
C1086       C  0.27434417  0.53646582  0.33446109     0.04910
C1087       C  0.28822693  0.57102118  0.34825010    -0.07380
C1088       C  0.28985485  0.60037152  0.32629279    -0.08120
C1089       C  0.27453147  0.59950318  0.29287950    -0.02680
C1090       C  0.25666029  0.56795156  0.28103496     0.04140
N1091       N  0.22902432  0.56818951  0.25480674     0.66650
H1092       H  0.25431905  0.51259980  0.28472425     0.15550
H1093       H  0.30200380  0.62528546  0.33646081     0.15260
N1094       N  0.30226594  0.57877599  0.38319199     0.74350
O1095       O  0.21711403  0.53940105  0.24042451    -0.39100
O1096       O  0.21043218  0.59513185  0.25311706    -0.39040
O1097       O  0.33323244  0.57011763  0.39089467    -0.39750
O1098       O  0.29094859  0.60568576  0.39964982    -0.39810
C1099       C  0.42052221  0.86037215  0.18102230    -0.12090
C1100       C  0.41169001  0.83044511  0.20015894     0.04910
C1101       C  0.43826420  0.81799065  0.22281570    -0.07380
C1102       C  0.47072158  0.83697343  0.22845526    -0.08120
C1103       C  0.48168192  0.86505710  0.20738761    -0.02680
C1104       C  0.45462656  0.87769261  0.18394333     0.04140
N1105       N  0.46037001  0.90790729  0.16253934     0.66650
H1106       H  0.40062042  0.87104928  0.16416574     0.15550
H1107       H  0.48898993  0.82723189  0.24738560     0.15260
N1108       N  0.43434103  0.78348251  0.23697353     0.74350
O1109       O  0.45640186  0.90434816  0.12947790    -0.39100
O1110       O  0.45973574  0.93854212  0.17667765    -0.39040
O1111       O  0.43007109  0.75731180  0.21559120    -0.39750
O1112       O  0.44400930  0.77837813  0.26827441    -0.39810
C1113       C  0.04741220  0.81629286  0.20466857    -0.12090
C1114       C  0.05252998  0.85372175  0.21009081     0.04910
C1115       C  0.08859457  0.86780821  0.20856611    -0.07380
C1116       C  0.11614052  0.84552219  0.20236751    -0.08120
C1117       C  0.11128683  0.80864069  0.20014857    -0.02680
C1118       C  0.07625989  0.79374553  0.19923530     0.04140
N1119       N  0.06897700  0.75699658  0.18978603     0.66650
H1120       H  0.02108623  0.80418096  0.20202274     0.15550
H1121       H  0.14273493  0.85774332  0.20086392     0.15260
N1122       N  0.09834127  0.90510821  0.21085610     0.74350
O1123       O  0.04324552  0.74822353  0.16940421    -0.39100
O1124       O  0.08803938  0.73319789  0.20122759    -0.39040
O1125       O  0.10071565  0.92090724  0.24069454    -0.39750
O1126       O  0.11521182  0.91859343  0.18546754    -0.39810
C1127       C  0.28953239  0.94905736  0.12886484    -0.12090
C1128       C  0.26161277  0.97330874  0.13043574     0.04910
C1129       C  0.23256046  0.96361189  0.15440732    -0.07380
C1130       C  0.23194969  0.92991330  0.17071759    -0.08120
C1131       C  0.25952776  0.90629105  0.16701376    -0.02680
C1132       C  0.28976943  0.91779844  0.14785592     0.04140
N1133       N  0.32194828  0.89857739  0.14840729     0.66650
H1134       H  0.31270881  0.95387677  0.11287273     0.15550
H1135       H  0.20911878  0.92169736  0.18625963     0.15260
N1136       N  0.20394268  0.98654831  0.16443552     0.74350
O1137       O  0.34062274  0.89540191  0.12091420    -0.39100
O1138       O  0.33426016  0.88919692  0.17751906    -0.39040
O1139       O  0.18743223  0.98159914  0.19296264    -0.39750
O1140       O  0.19381848  0.01082795  0.14533801    -0.39810
C1141       C  0.23345387  0.58126439  0.16449531    -0.12090
C1142       C  0.23188284  0.60847358  0.14014005     0.04910
C1143       C  0.24935874  0.60437228  0.10767474    -0.07380
C1144       C  0.26754309  0.57341044  0.10106648    -0.08120
C1145       C  0.26285491  0.54356591  0.12251492    -0.02680
C1146       C  0.25337270  0.55114262  0.15783956     0.04140
N1147       N  0.27511540  0.54002301  0.18642126     0.66650
H1148       H  0.22653210  0.58753684  0.19139992     0.15550
H1149       H  0.28307987  0.57154746  0.07722078     0.15260
N1150       N  0.25090241  0.63225183  0.08244277     0.74350
O1151       O  0.29419867  0.56298222  0.20359601    -0.39100
O1152       O  0.27320161  0.50876150  0.19705518    -0.39040
O1153       O  0.27161965  0.63050820  0.05631672    -0.39750
O1154       O  0.22895279  0.65666092  0.08391136    -0.39810
C1155       C  0.04962900  0.89371158  0.11442589    -0.12090
C1156       C  0.05681776  0.92981103  0.11343935     0.04910
C1157       C  0.05292527  0.95144490  0.14437498    -0.07380
C1158       C  0.04019740  0.93593737  0.17557684    -0.08120
C1159       C  0.03043005  0.89943729  0.17626456    -0.02680
C1160       C  0.03412348  0.87864283  0.14374414     0.04140
N1161       N  0.02341891  0.84167141  0.13959857     0.66650
H1162       H  0.05110878  0.87760707  0.09017649     0.15550
H1163       H  0.03900370  0.95234366  0.19937597     0.15260
N1164       N  0.06143269  0.98907950  0.14416846     0.74350
O1165       O  0.99081769  0.83260240  0.13760105    -0.39100
O1166       O  0.04551447  0.82032447  0.12711516    -0.39040
O1167       O  0.05307420  0.00906725  0.16994092    -0.39750
O1168       O  0.07966229  0.00221597  0.11951868    -0.39810
C1169       C  0.00374693  0.93251679  0.25485063    -0.12090
C1170       C  0.02420686  0.90221504  0.24853722     0.04910
C1171       C  0.04408405  0.89160933  0.27894908    -0.07380
C1172       C  0.04720411  0.91351128  0.30976332    -0.08120
C1173       C  0.02789712  0.94399241  0.31511493    -0.02680
C1174       C  0.00399473  0.95259745  0.28766556     0.04140
N1175       N  0.47829114  0.97973523  0.29289913     0.66650
H1176       H  0.48609778  0.93989735  0.23428348     0.15550
H1177       H  0.06307558  0.90468858  0.33148892     0.15260
N1178       N  0.06028493  0.85798458  0.28088238     0.74350
O1179       O  0.47360597  0.99422074  0.32293488    -0.39100
O1180       O  0.45753194  0.98694111  0.26814235    -0.39040
O1181       O  0.09303477  0.85727910  0.28813623    -0.39750
O1182       O  0.04086114  0.83051453  0.28565138    -0.39810
C1183       C  0.19578625  0.51735333  0.41785953    -0.12090
C1184       C  0.17401932  0.98673098  0.41296414     0.04910
C1185       C  0.18880682  0.95695567  0.39568654    -0.07380
C1186       C  0.22391344  0.96034851  0.38174874    -0.08120
C1187       C  0.24391723  0.99343793  0.38099864    -0.02680
C1188       C  0.23105217  0.52000128  0.40510586     0.04140
N1189       N  0.25447382  0.54497857  0.42369258     0.66650
H1190       H  0.18583145  0.53877036  0.43434507     0.15550
H1191       H  0.23481908  0.93687266  0.36981854     0.15260
N1192       N  0.16835178  0.92397324  0.39000921     0.74350
O1193       O  0.24218529  0.57306251  0.43703108    -0.39100
O1194       O  0.28296122  0.53425717  0.43631340    -0.39040
O1195       O  0.13477670  0.92321586  0.39030626    -0.39750
O1196       O  0.18365558  0.89597029  0.38096963    -0.39810
C1197       C  0.37780718  0.99793044  0.36501259    -0.12090
C1198       C  0.38016964  0.97207216  0.39034672     0.04910
C1199       C  0.34909922  0.95810764  0.40621464    -0.07380
C1200       C  0.31634144  0.97220573  0.39764929    -0.08120
C1201       C  0.31304086  0.99851613  0.37208102    -0.02680
C1202       C  0.34534907  0.01058334  0.35464559     0.04140
N1203       N  0.34545758  0.52841502  0.32163054     0.66650
H1204       H  0.40192656  0.00827090  0.35267925     0.15550
H1205       H  0.29276728  0.96014077  0.40913547     0.15260
N1206       N  0.35001145  0.92976281  0.43088365     0.74350
O1207       O  0.36115004  0.55844384  0.31961252    -0.39100
O1208       O  0.33824146  0.51099335  0.29329001    -0.39040
O1209       O  0.37729996  0.92512619  0.44933389    -0.39750
O1210       O  0.32298512  0.90924372  0.43466063    -0.39810
C1211       C  0.22421293  0.53153500  0.05445605    -0.12090
C1212       C  0.23018318  0.50404762  0.07826493     0.04910
C1213       C  0.20127991  0.97930850  0.08121611    -0.07380
C1214       C  0.16670531  0.99111429  0.07676079    -0.08120
C1215       C  0.16014785  0.52313839  0.05982696    -0.02680
C1216       C  0.18982626  0.54221581  0.04593748     0.04140
N1217       N  0.18618711  0.57109705  0.02220190     0.66650
H1218       H  0.24646062  0.54510697  0.04227266     0.15550
H1219       H  0.14448002  0.97285448  0.08214335     0.15260
N1220       N  0.20653486  0.94205661  0.08491073     0.74350
O1221       O  0.21178121  0.59327942  0.01807957    -0.39100
O1222       O  0.15869462  0.57350703  0.50341758    -0.39040
O1223       O  0.18201106  0.92199100  0.09683964    -0.39750
O1224       O  0.23348972  0.92825566  0.07129113    -0.39810
C1225       C  0.30012312  0.49702592  0.04603571    -0.12090
C1226       C  0.29957149  0.50672676  0.08239746     0.04910
C1227       C  0.33254026  0.52013790  0.09761273    -0.07380
C1228       C  0.36295615  0.52458313  0.07667907    -0.08120
C1229       C  0.36310336  0.51526504  0.04065397    -0.02680
C1230       C  0.33086178  0.50190200  0.02496884     0.04140
N1231       N  0.32847872  0.49296777  0.48792781     0.66650
H1232       H  0.27622683  0.48579663  0.03344714     0.15550
H1233       H  0.38746004  0.53455558  0.08914150     0.15260
N1234       N  0.33606748  0.52963706  0.13440292     0.74350
O1235       O  0.30372982  0.97197979  0.47648702    -0.39100
O1236       O  0.34648379  0.51077365  0.46619681    -0.39040
O1237       O  0.33987677  0.00555716  0.15620567    -0.39750
O1238       O  0.34556521  0.56116156  0.14339623    -0.39810
C1239       C  0.44683081  0.71490016  0.50312930    -0.12090
C1240       C  0.41306237  0.71192231  0.48500572     0.04910
C1241       C  0.40115168  0.67650798  0.97558554    -0.07380
C1242       C  0.42125693  0.64794661  0.48313264    -0.08120
C1243       C  0.45527615  0.65101052  0.49864789    -0.02680
C1244       C  0.46735697  0.68514315  0.51072718     0.04140
N1245       N  0.99872357  0.69008648  0.53236712     0.66650
H1246       H  0.45682257  0.74009785  0.51406953     0.15550
H1247       H  0.40923526  0.62215689  0.97560560     0.15260
N1248       N  0.36796224  0.66746701  0.95861091     0.74350
O1249       O  0.01789723  0.71824425  0.53075594    -0.39100
O1250       O  0.00347301  0.66974219  0.05760149    -0.39040
O1251       O  0.36767797  0.66255770  0.42553515    -0.39750
O1252       O  0.34372357  0.65225446  0.97629765    -0.39810
C1253       C  0.40142207  0.84550377  0.01133202    -0.12090
C1254       C  0.43399158  0.85358894  0.99520998     0.04910
C1255       C  0.44959654  0.82555685  0.47507582    -0.07380
C1256       C  0.43592389  0.79061393  0.47721550    -0.08120
C1257       C  0.40193615  0.78215357  0.49037079    -0.02680
C1258       C  0.38420953  0.81145601  0.00679744     0.04140
N1259       N  0.34790192  0.80851539  0.01721237     0.66650
H1260       H  0.38741957  0.86666902  0.02452797     0.15550
H1261       H  0.45128940  0.77029040  0.46495601     0.15260
N1262       N  0.97621076  0.83166834  0.44849147     0.74350
O1263       O  0.34080595  0.80524885  0.04952199    -0.39100
O1264       O  0.32512555  0.82172661  0.99760027    -0.39040
O1265       O  0.00058735  0.80989185  0.94486577    -0.39750
O1266       O  0.96760602  0.84802800  0.42145949    -0.39810
C1267       C  0.13346566  0.65491319  0.45204788    -0.12090
C1268       C  0.09701118  0.64779117  0.45035979     0.04910
C1269       C  0.07419935  0.67663280  0.45387799    -0.07380
C1270       C  0.08892305  0.71127276  0.46158066    -0.08120
C1271       C  0.12610782  0.71943347  0.46236404    -0.02680
C1272       C  0.14791142  0.68968175  0.45683713     0.04140
N1273       N  0.18528481  0.69391258  0.45337298     0.66650
H1274       H  0.15124428  0.63306017  0.44986849     0.15550
H1275       H  0.07049376  0.73199007  0.46250230     0.15260
N1276       N  0.03630037  0.67174342  0.44768845     0.74350
O1277       O  0.20454747  0.68559557  0.47887143    -0.39100
O1278       O  0.19745825  0.69120383  0.42251589    -0.39040
O1279       O  0.01642785  0.69773488  0.95095695    -0.39750
O1280       O  0.02338890  0.64329930  0.43345258    -0.39810
C1281       C  0.10636498  0.84758612  0.44802697    -0.12090
C1282       C  0.07236327  0.84693551  0.46243370     0.04910
C1283       C  0.06336864  0.82015070  0.48707551    -0.07380
C1284       C  0.08555339  0.79076874  0.48897750    -0.08120
C1285       C  0.11920525  0.79131745  0.47237587    -0.02680
C1286       C  0.13110092  0.82538927  0.46117459     0.04140
N1287       N  0.16510055  0.84121888  0.47163982     0.66650
H1288       H  0.11601851  0.87104550  0.43464310     0.15550
H1289       H  0.07740785  0.76923779  0.50548687     0.15260
N1290       N  0.03385631  0.82294592  0.51122015     0.74350
O1291       O  0.17965622  0.86520240  0.45345999    -0.39100
O1292       O  0.17642934  0.83730064  0.50257149    -0.39040
O1293       O  0.02091342  0.85254597  0.51871846    -0.39750
O1294       O  0.02284221  0.79627882  0.02792637    -0.39810
C1295       C  0.48238833  0.57007454  0.19734927    -0.12090
C1296       C  0.00509177  0.60083857  0.20322806     0.04910
C1297       C  0.02285341  0.61365916  0.17276364    -0.07380
C1298       C  0.02156571  0.59398210  0.14072135    -0.08120
C1299       C  0.00050567  0.56228644  0.13506591    -0.02680
C1300       C  0.47919180  0.55119656  0.16409506     0.04140
N1301       N  0.45292776  0.52243362  0.16067832     0.66650
H1302       H  0.46557881  0.56115446  0.21863479     0.15550
H1303       H  0.03681551  0.60524886  0.11933232     0.15260
N1304       N  0.04019969  0.64815663  0.17248610     0.74350
O1305       O  0.44283923  0.50640157  0.18783216    -0.39100
O1306       O  0.43384242  0.51890285  0.13328829    -0.39040
O1307       O  0.07300648  0.65078804  0.16561719    -0.39750
O1308       O  0.02151426  0.67449856  0.16754724    -0.39810
C1309       C  0.46283546  0.59486831  0.28712321    -0.12090
C1310       C  0.99667786  0.59464518  0.27019878     0.04910
C1311       C  0.02148707  0.57256812  0.28561390    -0.07380
C1312       C  0.01774067  0.56456595  0.32100607    -0.08120
C1313       C  0.98826844  0.57466411  0.34122434    -0.02680
C1314       C  0.45895063  0.58801262  0.32333762     0.04140
N1315       N  0.42722462  0.59882125  0.34125738     0.66650
H1316       H  0.44014208  0.60464881  0.27347068     0.15550
H1317       H  0.03820651  0.54943702  0.33278842     0.15260
N1318       N  0.04697912  0.55346127  0.26540799     0.74350
O1319       O  0.41052743  0.62462740  0.33027157    -0.39100
O1320       O  0.41343049  0.58067690  0.36535996    -0.39040
O1321       O  0.07692841  0.54770922  0.27871994    -0.39750
O1322       O  0.03690930  0.53570349  0.23811910    -0.39810
C1323       C  0.43492457  0.69015073  0.27348775    -0.12090
C1324       C  0.41307754  0.68969724  0.24368206     0.04910
C1325       C  0.42438314  0.67184784  0.21259583    -0.07380
C1326       C  0.45613357  0.65472147  0.21204877    -0.08120
C1327       C  0.47717504  0.65088079  0.24241943    -0.02680
C1328       C  0.46623843  0.67037282  0.27441185     0.04140
N1329       N  0.48418874  0.66928314  0.30850133     0.66650
H1330       H  0.42596698  0.70414083  0.29703886     0.15550
H1331       H  0.46206628  0.64213198  0.18698037     0.15260
N1332       N  0.40308472  0.66869453  0.18109098     0.74350
O1333       O  0.47099194  0.68416591  0.33552228    -0.39100
O1334       O  0.51305746  0.65413433  0.31243362    -0.39040
O1335       O  0.41591990  0.68084421  0.15304895    -0.39750
O1336       O  0.37958745  0.64382443  0.17844750    -0.39810
C1337       C  0.07487490  0.61801880  0.23763613    -0.12090
C1338       C  0.04577621  0.63934889  0.24636528     0.04910
C1339       C  0.05571103  0.67565105  0.25703230    -0.07380
C1340       C  0.09164914  0.68576956  0.26417691    -0.08120
C1341       C  0.11945148  0.66370348  0.25568074    -0.02680
C1342       C  0.11072858  0.62964252  0.24101904     0.04140
N1343       N  0.13752015  0.60730500  0.22659864     0.66650
H1344       H  0.07005462  0.59309842  0.22345435     0.15550
H1345       H  0.09829655  0.71314604  0.27216472     0.15260
N1346       N  0.03148518  0.70406644  0.25800687     0.74350
O1347       O  0.13464143  0.57416335  0.23013754    -0.39100
O1348       O  0.15989308  0.61942348  0.20486973    -0.39040
O1349       O  0.03263582  0.72619877  0.28382680    -0.39750
O1350       O  0.01672839  0.71274892  0.22984915    -0.39810
C1351       C  0.50648648  0.62194822  0.74049870    -0.02310
O1352       O  0.46473958  0.55881911  0.89869523    -0.86310
O1353       O  0.12712773  0.96956773  0.95374052    -0.86480
O1354       O  0.08154206  0.58744597  0.92888145    -0.88150
O1355       O  0.04366158  0.98924511  0.86162508    -0.86900
O1356       O  0.01029080  0.93871509  0.87440629    -0.86490
O1357       O  0.07328931  0.60544046  0.98698885    -0.87870
O1358       O  0.11640602  0.00952094  0.91101293    -0.86340
O1359       O  0.02347626  0.57116522  0.89114196    -0.85930
Zr1360     Zr  0.05476201  0.52563297  0.91857182     2.84310
O1361       O  0.05350520  0.96610373  0.93540111    -1.07910
O1362       O  0.02009125  0.55756398  0.95886062    -1.08640
C1363       C  0.99149683  0.56901115  0.87966074     1.06790
C1364       C  0.13661600  0.98802099  0.92661361     1.06740
C1365       C  0.08344097  0.61079783  0.95524822     1.09720
C1366       C  0.02715881  0.95891979  0.85265689     1.07500
H1367       H  0.10116505  0.53490515  0.97612730     0.33060
O1368       O  0.07698022  0.52529990  0.97627699    -1.28860
H1369       H  0.48607645  0.00064269  0.89557476     0.32730
O1370       O  0.99628390  0.00116614  0.91896072    -1.30540
O1371       O  0.07284401  0.94648677  0.55494214    -0.86310
O1372       O  0.40796987  0.53006775  0.99651628    -0.87800
O1373       O  0.10267482  0.54876482  0.54454712    -0.86380
O1374       O  0.03009576  0.88911872  0.94364827    -0.86430
O1375       O  0.43607102  0.94941891  0.90824139    -0.86150
O1376       O  0.00416076  0.61164204  0.51546379    -0.85950
O1377       O  0.48537974  0.51442876  0.58927276    -0.86320
O1378       O  0.45369388  0.91250969  0.52181203    -0.85790
O1379       O  0.02315627  0.56138141  0.57697846    -0.86850
O1380       O  0.45602263  0.89993831  0.96226238    -0.86010
O1381       O  0.12010987  0.99402737  0.52491526    -0.86410
O1382       O  0.46115660  0.59446997  0.97550263    -0.86130
O1383       O  0.41704422  0.00415445  0.92617023    -0.85780
O1384       O  0.07561873  0.90464214  0.98222949    -0.86190
O1385       O  0.01579853  0.94993872  0.57611301    -0.86480
O1386       O  0.41931968  0.99117186  0.53986659    -0.87820
Zr1387     Zr  0.07402851  0.96648535  0.99337252     2.83100
Zr1388     Zr  0.46201764  0.53431828  0.95840932     2.83500
Zr1389     Zr  0.04255965  0.55841188  0.51641799     2.84090
Zr1390     Zr  0.99468375  0.94281146  0.93662261     2.83360
Zr1391     Zr  0.48047190  0.97559860  0.53327918     2.84220
O1392       O  0.45922525  0.97586933  0.97543442    -1.08390
O1393       O  0.03926521  0.99941651  0.53215407    -1.07890
C1394       C  0.04875421  0.94367553  0.57924895     1.06770
C1395       C  0.39879410  0.51192205  0.52390440     1.09380
C1396       C  0.12498052  0.52299734  0.54250870     1.06940
C1397       C  0.05726461  0.88207174  0.96306051     1.07300
C1398       C  0.41339453  0.97438408  0.90954285     1.06880
C1399       C  0.47574514  0.61736885  0.99711204     1.06440
C1400       C  0.00261311  0.54427850  0.59826832     1.06860
C1401       C  0.44836634  0.89142051  0.49367282     1.06370
H1402       H  0.46864034  0.54905799  0.53114756     0.33050
O1403       O  0.48336931  0.53475282  0.51601358    -1.29490
H1404       H  0.01618776  0.91905192  0.50367460     0.33070
O1405       O  0.01603318  0.94259674  0.99474316    -1.30870
C1406       C  0.26365755  0.50589784  0.60407795    -0.02310
O1407       O  0.17772908  0.68615929  0.77602711    -0.86310
O1408       O  0.24820416  0.77774948  0.61357730    -0.86480
O1409       O  0.15140384  0.76048458  0.68715736    -0.88150
O1410       O  0.20945786  0.66480295  0.65898277    -0.86900
O1411       O  0.26664820  0.64906903  0.66979707    -0.86490
O1412       O  0.16644795  0.80657686  0.72547161    -0.87870
O1413       O  0.20125567  0.73955335  0.62647954    -0.86340
O1414       O  0.15943720  0.69166485  0.71849397    -0.85930
Zr1415     Zr  0.20468322  0.72420820  0.68721367     2.84310
O1416       O  0.26380062  0.72568245  0.66819187    -1.07910
O1417       O  0.20358701  0.74807407  0.74475065    -1.08640
C1418       C  0.15492663  0.68118529  0.75013304     1.06790
C1419       C  0.21827321  0.76025103  0.60557641     1.06740
C1420       C  0.14462265  0.78960115  0.70444142     1.09720
C1421       C  0.23550210  0.64350284  0.65687940     1.07500
H1422       H  0.21419747  0.79700854  0.67056882     0.33060
O1423       O  0.22830212  0.78281284  0.68552182    -1.28860
H1424       H  0.22759648  0.66675628  0.72629501     0.32730
O1425       O  0.23752040  0.69075613  0.72585002    -1.30540
O1426       O  0.35141087  0.81169247  0.67665389    -0.86310
O1427       O  0.28111586  0.72390484  0.83482122    -0.87800
O1428       O  0.23734029  0.86093932  0.70784196    -0.86380
O1429       O  0.32866062  0.69429890  0.64984906    -0.86430
O1430       O  0.28792943  0.63997811  0.74584815    -0.86150
O1431       O  0.19463019  0.80375153  0.79942352    -0.85950
O1432       O  0.30783438  0.83929118  0.77818255    -0.86320
O1433       O  0.37151606  0.73586165  0.75920649    -0.85790
O1434       O  0.24863206  0.84471801  0.78601399    -0.86850
O1435       O  0.35378621  0.68482108  0.72859480    -0.86010
O1436       O  0.27441280  0.84599379  0.66232759    -0.86410
O1437       O  0.20362288  0.74929517  0.82263589    -0.86130
O1438       O  0.25314695  0.65627439  0.79287818    -0.85780
O1439       O  0.32283199  0.75005778  0.62821096    -0.86190
O1440       O  0.36678570  0.80726725  0.73500431    -0.86480
O1441       O  0.32529521  0.76546395  0.82371983    -0.87820
Zr1442     Zr  0.28819098  0.78431910  0.66729404     2.83100
Zr1443     Zr  0.23824783  0.71596651  0.78307515     2.83500
Zr1444     Zr  0.22663468  0.80586026  0.74288741     2.84090
Zr1445     Zr  0.29604312  0.69191763  0.70662945     2.83360
Zr1446     Zr  0.31947242  0.77551918  0.76212986     2.84220
O1447       O  0.29683803  0.71677509  0.76360244    -1.08390
O1448       O  0.28587929  0.80877362  0.72433663    -1.07890
C1449       C  0.37391255  0.81583178  0.70334831     1.06770
C1450       C  0.30930687  0.74363528  0.84422540     1.09380
C1451       C  0.25651795  0.86877336  0.68022980     1.06940
C1452       C  0.33411336  0.71850971  0.62668691     1.07300
C1453       C  0.27165669  0.63390628  0.77552956     1.06880
C1454       C  0.19151866  0.78043886  0.82363884     1.06440
C1455       C  0.27997392  0.85771207  0.78535302     1.06860
C1456       C  0.37719208  0.70471115  0.74476828     1.06370
H1457       H  0.26095738  0.78484822  0.80543406     0.33050
O1458       O  0.26103055  0.77429569  0.78186001    -1.29490
H1459       H  0.34465576  0.74852416  0.69713393     0.33070
O1460       O  0.32045509  0.74978013  0.70527817    -1.30870
C1461       C  0.14358709  0.75875626  0.96535646    -0.02310
C1462       C  0.02148245  0.88037972  0.71126734    -0.02310
C1463       C  0.38530492  0.74257023  0.98617607    -0.02310
C1464       C  0.27642481  0.99929540  0.85342786    -0.02310
C1465       C  0.18679677  0.78800608  0.91942630    -0.12090
C1466       C  0.15655208  0.76600688  0.92635711     0.04910
C1467       C  0.13258281  0.76044199  0.89656674    -0.07380
C1468       C  0.14247292  0.77077650  0.86284340    -0.08120
C1469       C  0.17472211  0.78858190  0.85697270    -0.02680
C1470       C  0.19665166  0.79859388  0.88575495     0.04140
N1471       N  0.22953932  0.81883130  0.88112204     0.66650
H1472       H  0.20078752  0.80174852  0.93994540     0.15550
H1473       H  0.12530397  0.76321476  0.84051868     0.15260
N1474       N  0.09672873  0.74701322  0.89949938     0.74210
O1475       O  0.25527813  0.81583755  0.90211539    -0.39100
O1476       O  0.23225734  0.84144690  0.85742339    -0.39040
O1477       O  0.07296415  0.76852535  0.90734334    -0.39750
O1478       O  0.08767800  0.71824966  0.88322242    -0.39810
C1479       C  0.22091498  0.76990719  0.54008329    -0.12090
C1480       C  0.20082262  0.76294555  0.56999603     0.04910
C1481       C  0.16412779  0.75441235  0.56499477    -0.07380
C1482       C  0.14947116  0.75137871  0.53095271    -0.08120
C1483       C  0.16858785  0.75907846  0.49978029    -0.02680
C1484       C  0.20620983  0.76743444  0.50553041     0.04140
N1485       N  0.23142182  0.77252673  0.97816099     0.66650
H1486       H  0.24905631  0.77618517  0.54353581     0.15550
H1487       H  0.12163779  0.74347737  0.52922767     0.15260
N1488       N  0.14043997  0.75078075  0.59437760     0.74350
O1489       O  0.25130108  0.80040117  0.97872422    -0.39100
O1490       O  0.23924518  0.74675788  0.95826588    -0.39040
O1491       O  0.13803061  0.77630386  0.61653225    -0.39750
O1492       O  0.11761887  0.72527109  0.59470650    -0.39810
C1493       C  0.36194049  0.75418037  0.88467921    -0.12090
C1494       C  0.32638679  0.74187398  0.88051008     0.04910
C1495       C  0.31048547  0.72622045  0.90996734    -0.07380
C1496       C  0.32911237  0.72621399  0.94267574    -0.08120
C1497       C  0.36419182  0.74099865  0.94859204    -0.02680
C1498       C  0.38130205  0.75140305  0.91635252     0.04140
N1499       N  0.41911874  0.75364600  0.91259616     0.66650
H1500       H  0.37644111  0.76313575  0.86173856     0.15550
H1501       H  0.31747281  0.70898015  0.96104767     0.15260
N1502       N  0.27619597  0.70844315  0.90689568     0.74350
O1503       O  0.43622573  0.72574320  0.91474205    -0.39100
O1504       O  0.43336130  0.77953482  0.89684474    -0.39040
O1505       O  0.27030568  0.67912568  0.92133080    -0.39750
O1506       O  0.25069764  0.72386895  0.89324055    -0.39810
C1507       C  0.39168908  0.74173874  0.55294394    -0.12090
C1508       C  0.36816782  0.73464223  0.52371545     0.04910
C1509       C  0.33487347  0.71719660  0.53234773    -0.07380
C1510       C  0.33054656  0.70169389  0.56542448    -0.08120
C1511       C  0.35303650  0.71137312  0.59381427    -0.02680
C1512       C  0.38453035  0.73149988  0.58730215     0.04140
N1513       N  0.40861560  0.74404974  0.61524361     0.66650
H1514       H  0.41575103  0.75775296  0.54965409     0.15550
H1515       H  0.30466620  0.68992153  0.57169714     0.15260
N1516       N  0.30230630  0.72482538  0.51538644     0.74350
O1517       O  0.44128659  0.74948298  0.60881605    -0.39100
O1518       O  0.39744559  0.75172998  0.64581354    -0.39040
O1519       O  0.27612371  0.70269846  0.51509494    -0.39750
O1520       O  0.29806237  0.75541500  0.50449085    -0.39810
C1521       C  0.25038663  0.91554126  0.79042073    -0.12090
C1522       C  0.28169753  0.89616189  0.79290211     0.04910
C1523       C  0.31206982  0.91311294  0.80574964    -0.07380
C1524       C  0.30954425  0.94634910  0.82119832    -0.08120
C1525       C  0.27728151  0.96568033  0.82557384    -0.02680
C1526       C  0.24713228  0.94990335  0.80602280     0.04140
N1527       N  0.21259374  0.96568910  0.80281439     0.66650
H1528       H  0.22721514  0.90268568  0.77773019     0.15550
H1529       H  0.33497453  0.95433605  0.83091757     0.15260
N1530       N  0.34553175  0.89611380  0.80602379     0.74350
O1531       O  0.20444662  0.99321586  0.82022257    -0.39100
O1532       O  0.18993120  0.95242209  0.78092357    -0.39040
O1533       O  0.36154521  0.89013994  0.77732304    -0.39750
O1534       O  0.36155210  0.89232459  0.83489756    -0.39810
C1535       C  0.26183141  0.53662791  0.79903409    -0.12090
C1536       C  0.27436013  0.53646402  0.83446503     0.04910
C1537       C  0.28824149  0.57101902  0.84825585    -0.07380
C1538       C  0.28986560  0.60037172  0.82630082    -0.08120
C1539       C  0.27454035  0.59950493  0.79288806    -0.02680
C1540       C  0.25667084  0.56795288  0.78104237     0.04140
N1541       N  0.22903318  0.56819056  0.75481572     0.66650
H1542       H  0.25433402  0.51260098  0.78472716     0.15550
H1543       H  0.30201324  0.62528574  0.83647008     0.15260
N1544       N  0.30228153  0.57877117  0.88319778     0.74350
O1545       O  0.21712318  0.53940201  0.74043339    -0.39100
O1546       O  0.21043968  0.59513212  0.75312801    -0.39040
O1547       O  0.33324770  0.57011117  0.89089953    -0.39750
O1548       O  0.29096454  0.60567938  0.89965842    -0.39810
C1549       C  0.42052088  0.86037111  0.68102026    -0.12090
C1550       C  0.41168888  0.83044455  0.70015766     0.04910
C1551       C  0.43826353  0.81799033  0.72281414    -0.07380
C1552       C  0.47072110  0.83697290  0.72845263    -0.08120
C1553       C  0.48168095  0.86505641  0.70738468    -0.02680
C1554       C  0.45462523  0.87769160  0.68394067     0.04140
N1555       N  0.46036791  0.90790682  0.66253732     0.66650
H1556       H  0.40061873  0.87104819  0.66416408     0.15550
H1557       H  0.48898970  0.82723164  0.74738286     0.15260
N1558       N  0.43434039  0.78348280  0.73697332     0.74350
O1559       O  0.45639941  0.90434840  0.62947588    -0.39100
O1560       O  0.45973331  0.93854128  0.67667644    -0.39040
O1561       O  0.43007138  0.75731128  0.71559189    -0.39750
O1562       O  0.44400841  0.77837977  0.76827457    -0.39810
C1563       C  0.04741238  0.81629391  0.70466711    -0.12090
C1564       C  0.05252920  0.85372291  0.71008761     0.04910
C1565       C  0.08859351  0.86781035  0.70856430    -0.07380
C1566       C  0.11614057  0.84552475  0.70237052    -0.08120
C1567       C  0.11128752  0.80864325  0.70015431    -0.02680
C1568       C  0.07626101  0.79374712  0.69923874     0.04140
N1569       N  0.06897990  0.75699697  0.68979383     0.66650
H1570       H  0.02108678  0.80418130  0.70202029     0.15550
H1571       H  0.14273489  0.85774634  0.70086840     0.15260
N1572       N  0.09833911  0.90511059  0.71085284     0.74350
O1573       O  0.04325038  0.74822048  0.66941077    -0.39100
O1574       O  0.08804017  0.73320032  0.70124295    -0.39040
O1575       O  0.10071161  0.92091115  0.74069065    -0.39750
O1576       O  0.11521023  0.91859504  0.68546425    -0.39810
C1577       C  0.28953058  0.94905835  0.62886681    -0.12090
C1578       C  0.26161097  0.97330979  0.63043748     0.04910
C1579       C  0.23255899  0.96361353  0.65440974    -0.07380
C1580       C  0.23194889  0.92991567  0.67072149    -0.08120
C1581       C  0.25952722  0.90629367  0.66701846    -0.02680
C1582       C  0.28976833  0.91780035  0.64785938     0.04140
N1583       N  0.32194725  0.89857937  0.64841075     0.66650
H1584       H  0.31270655  0.95387722  0.61287389     0.15550
H1585       H  0.20911826  0.92170003  0.68626405     0.15260
N1586       N  0.20394084  0.98654980  0.66443721     0.74350
O1587       O  0.34062128  0.89540320  0.62091744    -0.39100
O1588       O  0.33425950  0.88919935  0.67752255    -0.39040
O1589       O  0.18742995  0.98160083  0.69296412    -0.39750
O1590       O  0.19381655  0.01082895  0.64533916    -0.39810
C1591       C  0.23344239  0.58126625  0.66450069    -0.12090
C1592       C  0.23187120  0.60847687  0.64014718     0.04910
C1593       C  0.24934257  0.60437616  0.60767966    -0.07380
C1594       C  0.26752419  0.57341361  0.60106793    -0.08120
C1595       C  0.26283612  0.54356791  0.62251504    -0.02680
C1596       C  0.25335878  0.55114354  0.65784136     0.04140
N1597       N  0.27510425  0.54002217  0.68642039     0.66650
H1598       H  0.22652316  0.58753763  0.69140628     0.15550
H1599       H  0.28305839  0.57155136  0.57722056     0.15260
N1600       N  0.25088430  0.63225664  0.58244863     0.74350
O1601       O  0.29418279  0.56298139  0.70360031    -0.39100
O1602       O  0.27320410  0.50875586  0.69704204    -0.39040
O1603       O  0.27159839  0.63051314  0.55632011    -0.39750
O1604       O  0.22893580  0.65666664  0.58392076    -0.39810
C1605       C  0.04962412  0.89371437  0.61442237    -0.12090
C1606       C  0.05681239  0.92981396  0.61343664     0.04910
C1607       C  0.05292111  0.95144696  0.64437303    -0.07380
C1608       C  0.04019450  0.93593852  0.67557491    -0.08120
C1609       C  0.03042817  0.89943819  0.67626212    -0.02680
C1610       C  0.03412133  0.87864439  0.64374132     0.04140
N1611       N  0.02341902  0.84167243  0.63959609     0.66650
H1612       H  0.05110310  0.87761044  0.59017253     0.15550
H1613       H  0.03900110  0.95234420  0.69937448     0.15260
N1614       N  0.06142873  0.98908156  0.64416732     0.74350
O1615       O  0.99081826  0.83260156  0.63759790    -0.39100
O1616       O  0.04551626  0.82032663  0.62711383    -0.39040
O1617       O  0.05307113  0.00906863  0.66994062    -0.39750
O1618       O  0.07965814  0.00221853  0.61951768    -0.39810
C1619       C  0.00374584  0.93251474  0.75484987    -0.12090
C1620       C  0.02420566  0.90221323  0.74853507     0.04910
C1621       C  0.04408289  0.89160572  0.77894633    -0.07380
C1622       C  0.04720294  0.91350584  0.80976146    -0.08120
C1623       C  0.02789584  0.94398641  0.81511462    -0.02680
C1624       C  0.00399367  0.95259346  0.78766587     0.04140
N1625       N  0.47829047  0.97973129  0.79290103     0.66650
H1626       H  0.48609680  0.93989651  0.73428304     0.15550
H1627       H  0.06307454  0.90468204  0.83148647     0.15260
N1628       N  0.06028375  0.85798083  0.78087838     0.74350
O1629       O  0.47360423  0.99421382  0.82293795    -0.39100
O1630       O  0.45753254  0.98694006  0.76814423    -0.39040
O1631       O  0.09303389  0.85727530  0.78813087    -0.39750
O1632       O  0.04086010  0.83051102  0.78564892    -0.39810
C1633       C  0.19580335  0.51733832  0.91786441    -0.12090
C1634       C  0.17402285  0.98672660  0.91296422     0.04910
C1635       C  0.18881235  0.95695135  0.89568867    -0.07380
C1636       C  0.22391834  0.96034577  0.88174943    -0.08120
C1637       C  0.24392023  0.99343626  0.88099760    -0.02680
C1638       C  0.23106860  0.51999058  0.90510937     0.04140
N1639       N  0.25448912  0.54496875  0.92369625     0.66650
H1640       H  0.18584711  0.53875346  0.93435139     0.15550
H1641       H  0.23482532  0.93687006  0.86982028     0.15260
N1642       N  0.16835991  0.92396692  0.89001555     0.74350
O1643       O  0.24219905  0.57305184  0.93703499    -0.39100
O1644       O  0.28297695  0.53424830  0.93631727    -0.39040
O1645       O  0.13478472  0.92320779  0.89030726    -0.39750
O1646       O  0.18366675  0.89596292  0.88098592    -0.39810
C1647       C  0.37781053  0.99792836  0.86501494    -0.12090
C1648       C  0.38017220  0.97206539  0.89034481     0.04910
C1649       C  0.34910082  0.95809925  0.90620983    -0.07380
C1650       C  0.31634345  0.97219837  0.89764452    -0.08120
C1651       C  0.31304376  0.99851293  0.87208028    -0.02680
C1652       C  0.34535293  0.01058401  0.85464925     0.04140
N1653       N  0.34547616  0.52841652  0.82163800     0.66650
H1654       H  0.40193046  0.00827129  0.85268447     0.15550
H1655       H  0.29276892  0.96013236  0.90912891     0.15260
N1656       N  0.35001166  0.92975282  0.93087722     0.74350
O1657       O  0.36117139  0.55844455  0.81962531    -0.39100
O1658       O  0.33825742  0.51100110  0.79329446    -0.39040
O1659       O  0.37729995  0.92511363  0.94932690    -0.39750
O1660       O  0.32298401  0.90923545  0.93465403    -0.39810
C1661       C  0.22419083  0.53154525  0.55445524    -0.12090
C1662       C  0.23015703  0.50405711  0.57826459     0.04910
C1663       C  0.20127742  0.97931099  0.58121732    -0.07380
C1664       C  0.16670320  0.99111781  0.57676094    -0.08120
C1665       C  0.16012397  0.52316650  0.55983345    -0.02680
C1666       C  0.18980620  0.54223551  0.54593967     0.04140
N1667       N  0.18617309  0.57111856  0.52220418     0.66650
H1668       H  0.24644099  0.54511153  0.54227027     0.15550
H1669       H  0.14447725  0.97285878  0.58214342     0.15260
N1670       N  0.20653100  0.94205910  0.58491364     0.74350
O1671       O  0.21178154  0.59327919  0.51805959    -0.39100
O1672       O  0.15872490  0.57345564  0.00338516    -0.39040
O1673       O  0.18200649  0.92199492  0.59684341    -0.39750
O1674       O  0.23348535  0.92825656  0.57129473    -0.39810
C1675       C  0.30009907  0.49703674  0.54602986    -0.12090
C1676       C  0.29954799  0.50673185  0.58239273     0.04910
C1677       C  0.33251778  0.52013858  0.59760939    -0.07380
C1678       C  0.36293334  0.52458751  0.57667604    -0.08120
C1679       C  0.36308033  0.51527608  0.54064950    -0.02680
C1680       C  0.33083819  0.50191499  0.52496340     0.04140
N1681       N  0.32850231  0.49295197  0.98793359     0.66650
H1682       H  0.27620210  0.48580972  0.53344066     0.15550
H1683       H  0.38743760  0.53455665  0.58914013     0.15260
N1684       N  0.33604676  0.52962874  0.63440126     0.74350
O1685       O  0.30373201  0.97197215  0.97648598    -0.39100
O1686       O  0.34650454  0.51075871  0.96620110    -0.39040
O1687       O  0.33987448  0.00555697  0.65620710    -0.39750
O1688       O  0.34554221  0.56115209  0.64340134    -0.39810
C1689       C  0.44685918  0.71488958  0.00312236    -0.12090
C1690       C  0.41309863  0.71191750  0.98498234     0.04910
C1691       C  0.40109532  0.67650784  0.47565196    -0.07380
C1692       C  0.42132160  0.64794768  0.98304384    -0.08120
C1693       C  0.45532176  0.65100326  0.99860370    -0.02680
C1694       C  0.46738470  0.68513046  0.01071687     0.04140
N1695       N  0.99873168  0.69006493  0.03238543     0.66650
H1696       H  0.45684460  0.74008379  0.01407664     0.15550
H1697       H  0.40916107  0.62214919  0.47573399     0.15260
N1698       N  0.36789726  0.66746712  0.45869340     0.74350
O1699       O  0.01791088  0.71822127  0.03079715    -0.39100
O1700       O  0.00349096  0.66977146  0.55758394    -0.39040
O1701       O  0.36775483  0.66258403  0.92544966    -0.39750
O1702       O  0.34365605  0.65228207  0.47639882    -0.39810
C1703       C  0.40140553  0.84551871  0.51132261    -0.12090
C1704       C  0.43397940  0.85359840  0.49520625     0.04910
C1705       C  0.44961071  0.82555090  0.97507637    -0.07380
C1706       C  0.43594501  0.79060601  0.97721914    -0.08120
C1707       C  0.40195830  0.78214098  0.99037486    -0.02680
C1708       C  0.38418909  0.81147270  0.50678720     0.04140
N1709       N  0.34787815  0.80853775  0.51719111     0.66650
H1710       H  0.38740326  0.86668692  0.52451379     0.15550
H1711       H  0.45131183  0.77028485  0.96495682     0.15260
N1712       N  0.97621773  0.83166748  0.94848559     0.74350
O1713       O  0.34077083  0.80529847  0.54950172    -0.39100
O1714       O  0.32510706  0.82172681  0.49755678    -0.39040
O1715       O  0.00058073  0.80989167  0.44488296    -0.39750
O1716       O  0.96760607  0.84803265  0.92145941    -0.39810
C1717       C  0.13348296  0.65489583  0.95204748    -0.12090
C1718       C  0.09702944  0.64777066  0.95035266     0.04910
C1719       C  0.07421515  0.67661054  0.95386624    -0.07380
C1720       C  0.08893480  0.71125180  0.96157153    -0.08120
C1721       C  0.12611885  0.71941621  0.96236027    -0.02680
C1722       C  0.14792539  0.68966564  0.95683731     0.04140
N1723       N  0.18529909  0.69389779  0.95337880     0.66650
H1724       H  0.15126364  0.63304420  0.94987239     0.15550
H1725       H  0.07050344  0.73196720  0.96248985     0.15260
N1726       N  0.03631788  0.67171794  0.94766920     0.74350
O1727       O  0.20455776  0.68557976  0.97887987    -0.39100
O1728       O  0.19747682  0.69118752  0.92252355    -0.39040
O1729       O  0.01641411  0.69776359  0.45097334    -0.39750
O1730       O  0.02341286  0.64327585  0.93342350    -0.39810
C1731       C  0.10638251  0.84758119  0.94803962    -0.12090
C1732       C  0.07237508  0.84692667  0.96243358     0.04910
C1733       C  0.06337191  0.82013466  0.98706482    -0.07380
C1734       C  0.08555414  0.79075035  0.98896516    -0.08120
C1735       C  0.11921185  0.79130223  0.97237475    -0.02680
C1736       C  0.13111307  0.82537742  0.96118613     0.04140
N1737       N  0.16511380  0.84119992  0.97165780     0.66650
H1738       H  0.11604152  0.87104449  0.93466549     0.15550
H1739       H  0.07740385  0.76921680  0.00546947     0.15260
N1740       N  0.03385471  0.82292635  0.01120348     0.74350
O1741       O  0.17967614  0.86518342  0.95348256    -0.39100
O1742       O  0.17643491  0.83727904  0.00259179    -0.39040
O1743       O  0.02092843  0.85252962  0.01872328    -0.39750
O1744       O  0.02286274  0.79630721  0.52796681    -0.39810
C1745       C  0.48238318  0.57007981  0.69735719    -0.12090
C1746       C  0.00509297  0.60083912  0.70323822     0.04910
C1747       C  0.02285762  0.61365799  0.67277469    -0.07380
C1748       C  0.02156557  0.59398350  0.64073099    -0.08120
C1749       C  0.00049756  0.56229339  0.63507268    -0.02680
C1750       C  0.47918283  0.55120489  0.66410149     0.04140
N1751       N  0.45291434  0.52244638  0.66068256     0.66650
H1752       H  0.46557184  0.56116144  0.71864215     0.15550
H1753       H  0.03681794  0.60524874  0.61934292     0.15260
N1754       N  0.04020911  0.64815307  0.67249859     0.74350
O1755       O  0.44282865  0.50640843  0.68783388    -0.39100
O1756       O  0.43382452  0.51892485  0.63329495    -0.39040
O1757       O  0.07301555  0.65078010  0.66562715    -0.39750
O1758       O  0.02152742  0.67449855  0.66756396    -0.39810
C1759       C  0.46284064  0.59486972  0.78713812    -0.12090
C1760       C  0.99668032  0.59464429  0.77020857     0.04910
C1761       C  0.02148840  0.57256089  0.78561666    -0.07380
C1762       C  0.01774533  0.56455312  0.82100750    -0.08120
C1763       C  0.98827821  0.57465346  0.84123173    -0.02680
C1764       C  0.45896021  0.58800966  0.82335205     0.04140
N1765       N  0.42723884  0.59882108  0.84127860     0.66650
H1766       H  0.44014621  0.60465386  0.77349033     0.15550
H1767       H  0.03820986  0.54941810  0.83278411     0.15260
N1768       N  0.04697634  0.55345437  0.76540516     0.74350
O1769       O  0.41054351  0.62463103  0.83029865    -0.39100
O1770       O  0.41344628  0.58067617  0.86538162    -0.39040
O1771       O  0.07692647  0.54769785  0.77871281    -0.39750
O1772       O  0.03690139  0.53569957  0.73811635    -0.39810
C1773       C  0.43492351  0.69015015  0.77349548    -0.12090
C1774       C  0.41307937  0.68969884  0.74368764     0.04910
C1775       C  0.42438848  0.67185250  0.71260132    -0.07380
C1776       C  0.45613789  0.65472432  0.71205675    -0.08120
C1777       C  0.47717625  0.65088102  0.74242919    -0.02680
C1778       C  0.46623803  0.67037304  0.77442102     0.04140
N1779       N  0.48418790  0.66928493  0.80851091     0.66650
H1780       H  0.42596374  0.70413881  0.79704653     0.15550
H1781       H  0.46207332  0.64213737  0.68698786     0.15260
N1782       N  0.40309543  0.66870613  0.68109272     0.74350
O1783       O  0.47099329  0.68417302  0.83553011    -0.39100
O1784       O  0.51305501  0.65413363  0.81244485    -0.39040
O1785       O  0.41593565  0.68086189  0.65305547    -0.39750
O1786       O  0.37959795  0.64383689  0.67844052    -0.39810
C1787       C  0.07487709  0.61801946  0.73764875    -0.12090
C1788       C  0.04577787  0.63934924  0.74637720     0.04910
C1789       C  0.05571244  0.67565125  0.75704534    -0.07380
C1790       C  0.09165056  0.68577013  0.76419005    -0.08120
C1791       C  0.11945334  0.66370468  0.75569351    -0.02680
C1792       C  0.11073079  0.62964350  0.74103220     0.04140
N1793       N  0.13752283  0.60730638  0.72661202     0.66650
H1794       H  0.07005742  0.59309981  0.72346561     0.15550
H1795       H  0.09829762  0.71314660  0.77217812     0.15260
N1796       N  0.03148646  0.70406650  0.75802044     0.74350
O1797       O  0.13464464  0.57416469  0.73015074    -0.39100
O1798       O  0.15989633  0.61942543  0.70488397    -0.39040
O1799       O  0.03263670  0.72619792  0.78384114    -0.39750
O1800       O  0.01673092  0.71275043  0.72986258    -0.39810
C1801       C  0.00648230  0.12194161  0.24049458    -0.02310
O1802       O  0.96472763  0.05883060  0.39869092    -0.86310
O1803       O  0.62711169  0.46956959  0.45374207    -0.86480
O1804       O  0.58153047  0.08746987  0.42888722    -0.88150
O1805       O  0.54365151  0.48925303  0.36162582    -0.86900
O1806       O  0.51027862  0.43872449  0.37440817    -0.86490
O1807       O  0.57326969  0.10546314  0.48699392    -0.87870
O1808       O  0.61639311  0.50952371  0.41101440    -0.86340
O1809       O  0.52346327  0.07118247  0.39113517    -0.85930
Zr1810     Zr  0.55475325  0.02565661  0.41857163     2.84310
O1811       O  0.55349034  0.46611354  0.43540344    -1.07910
O1812       O  0.52008078  0.05758711  0.45886110    -1.08640
C1813       C  0.49148345  0.06902299  0.37965493     1.06790
C1814       C  0.63660101  0.48802148  0.42661454     1.06740
C1815       C  0.58342517  0.11082124  0.45525455     1.09720
C1816       C  0.52714899  0.45892703  0.35265855     1.07500
H1817       H  0.60115371  0.03493161  0.47612827     0.33060
O1818       O  0.57696984  0.02532358  0.47627729    -1.28860
H1819       H  0.98606425  0.50065537  0.39557283     0.32730
O1820       O  0.49627118  0.50117837  0.41895913    -1.30540
O1821       O  0.57284674  0.44646774  0.05494675    -0.86310
O1822       O  0.90795904  0.03008153  0.49651479    -0.87800
O1823       O  0.60268653  0.04875723  0.04454591    -0.86380
O1824       O  0.53007603  0.38913042  0.44364814    -0.86430
O1825       O  0.93605365  0.44943038  0.40824749    -0.86150
O1826       O  0.50416835  0.11162876  0.01546470    -0.85950
O1827       O  0.98539345  0.01441615  0.08927240    -0.86320
O1828       O  0.95369794  0.41249462  0.02181531    -0.85790
O1829       O  0.52316719  0.06137074  0.07697776    -0.86850
O1830       O  0.95601352  0.39994379  0.46226103    -0.86010
O1831       O  0.62011409  0.49399761  0.02492291    -0.86410
O1832       O  0.96113637  0.09449970  0.47549010    -0.86130
O1833       O  0.91703201  0.50417134  0.42616531    -0.85780
O1834       O  0.57559732  0.40465058  0.48223251    -0.86190
O1835       O  0.51580220  0.44992521  0.07611845    -0.86480
O1836       O  0.91932904  0.49116193  0.03987169    -0.87820
Zr1837     Zr  0.57401268  0.46649391  0.49337492     2.83100
Zr1838     Zr  0.96200733  0.03433997  0.45840853     2.83500
Zr1839     Zr  0.54257106  0.05840165  0.01641748     2.84090
Zr1840     Zr  0.49466806  0.44282409  0.43662341     2.83360
Zr1841     Zr  0.98047904  0.47558372  0.03328178     2.84220
O1842       O  0.95921002  0.47588346  0.47543388    -1.08390
O1843       O  0.53927355  0.49939920  0.03215514    -1.07890
C1844       C  0.54875736  0.44366044  0.07925457     1.06770
C1845       C  0.89880795  0.01190721  0.02390453     1.09380
C1846       C  0.62499411  0.02299168  0.04250478     1.06940
C1847       C  0.55724272  0.38208190  0.46306213     1.07300
C1848       C  0.91337941  0.47439740  0.40954503     1.06880
C1849       C  0.97571355  0.11737966  0.49712897     1.06440
C1850       C  0.50262471  0.04426695  0.09826756     1.06860
C1851       C  0.94836787  0.39140541  0.99367619     1.06370
H1852       H  0.96865235  0.04904534  0.03114905     0.33050
O1853       O  0.98338189  0.03474088  0.01601502    -1.29490
H1854       H  0.51618913  0.41903374  0.00367723     0.33070
O1855       O  0.51601640  0.44260826  0.49474396    -1.30870
C1856       C  0.76366865  0.00589569  0.10407313    -0.02310
O1857       O  0.67772604  0.18615245  0.27602529    -0.86310
O1858       O  0.74820421  0.27774242  0.11357516    -0.86480
O1859       O  0.65139925  0.26047765  0.18715726    -0.88150
O1860       O  0.70945686  0.16479713  0.15897812    -0.86900
O1861       O  0.76664728  0.14906473  0.16979381    -0.86490
O1862       O  0.66644579  0.30657017  0.22547008    -0.87870
O1863       O  0.70125561  0.23954629  0.12647759    -0.86340
O1864       O  0.65943604  0.19165072  0.21849044    -0.85930
Zr1865     Zr  0.70467928  0.22420158  0.18721193     2.84310
O1866       O  0.76379696  0.22567675  0.16819079    -1.07910
O1867       O  0.70358186  0.24806933  0.24474862    -1.08640
C1868       C  0.65492513  0.18117328  0.25013040     1.06790
C1869       C  0.71827380  0.26024335  0.10557433     1.06740
C1870       C  0.64461919  0.28959443  0.20444164     1.09720
C1871       C  0.73550217  0.14349814  0.15687421     1.07500
H1872       H  0.71419494  0.29700215  0.17056550     0.33060
O1873       O  0.72829940  0.28280642  0.18551867    -1.28860
H1874       H  0.72759286  0.16675172  0.22629429     0.32730
O1875       O  0.73751645  0.19075170  0.22584957    -1.30540
O1876       O  0.85140990  0.31168411  0.17665293    -0.86310
O1877       O  0.78111232  0.22390045  0.33481943    -0.87800
O1878       O  0.73733905  0.36093298  0.20783837    -0.86380
O1879       O  0.82865485  0.19429073  0.14984807    -0.86430
O1880       O  0.78792405  0.13997474  0.24584682    -0.86150
O1881       O  0.69462951  0.30374906  0.29942199    -0.85950
O1882       O  0.80783082  0.33928905  0.27816368    -0.86320
O1883       O  0.87151292  0.23585448  0.25920101    -0.85790
O1884       O  0.74862946  0.34472426  0.28599764    -0.86850
O1885       O  0.85378217  0.18481345  0.22859094    -0.86010
O1886       O  0.77441582  0.34598920  0.16232700    -0.86410
O1887       O  0.70361847  0.24929310  0.32263642    -0.86130
O1888       O  0.75314195  0.15627303  0.29287654    -0.85780
O1889       O  0.82282882  0.25004961  0.12820926    -0.86190
O1890       O  0.86678396  0.30725937  0.23500370    -0.86480
O1891       O  0.82529444  0.26545780  0.32371837    -0.87820
Zr1892     Zr  0.78818922  0.28431266  0.16729200     2.83100
Zr1893     Zr  0.73824298  0.21596406  0.28307437     2.83500
Zr1894     Zr  0.72663186  0.30585435  0.24288405     2.84090
Zr1895     Zr  0.79603887  0.19191267  0.20662859     2.83360
Zr1896     Zr  0.81946955  0.27551311  0.26212778     2.84220
O1897       O  0.79683322  0.21677023  0.26360139    -1.08390
O1898       O  0.78587623  0.30876573  0.22433402    -1.07890
C1899       C  0.87391124  0.31582327  0.20334768     1.06770
C1900       C  0.80930477  0.24362916  0.34422328     1.09380
C1901       C  0.75652010  0.36876838  0.18022892     1.06940
C1902       C  0.83410789  0.21850066  0.12668534     1.07300
C1903       C  0.77165119  0.13390453  0.27552816     1.06880
C1904       C  0.69151611  0.28043766  0.32363844     1.06440
C1905       C  0.77997249  0.35771455  0.28533066     1.06860
C1906       C  0.87718866  0.20470373  0.24476293     1.06370
H1907       H  0.76095454  0.28484814  0.30543213     0.33050
O1908       O  0.76102760  0.27429297  0.28185914    -1.29490
H1909       H  0.84465350  0.24851697  0.19713186     0.33070
O1910       O  0.82045298  0.24977376  0.20527634    -1.30870
C1911       C  0.64357302  0.25877775  0.46535979    -0.02310
C1912       C  0.52147906  0.38037241  0.21127573    -0.02310
C1913       C  0.88528162  0.24257569  0.48618352    -0.02310
C1914       C  0.77641156  0.49929323  0.35342547    -0.02310
C1915       C  0.68678506  0.28802572  0.41942765    -0.12090
C1916       C  0.65654017  0.26602695  0.42636013     0.04910
C1917       C  0.63257321  0.26045646  0.39656866    -0.07380
C1918       C  0.64246798  0.27078011  0.36284310    -0.08120
C1919       C  0.67471803  0.28858368  0.35697145    -0.02680
C1920       C  0.69664391  0.29860462  0.38575406     0.04140
N1921       N  0.72953085  0.31884311  0.38111991     0.66650
H1922       H  0.70077381  0.30177282  0.43994561     0.15550
H1923       H  0.62530108  0.26321329  0.34051825     0.15260
N1924       N  0.59671735  0.24703250  0.39950207     0.74210
O1925       O  0.75526573  0.31586065  0.40212059    -0.39100
O1926       O  0.73225138  0.34144976  0.35741291    -0.39040
O1927       O  0.57295599  0.26854729  0.40734868    -0.39750
O1928       O  0.58766208  0.21826958  0.38322622    -0.39810
C1929       C  0.72091779  0.26989600  0.04008118    -0.12090
C1930       C  0.70082447  0.26293645  0.06999377     0.04910
C1931       C  0.66412979  0.25440324  0.06499252    -0.07380
C1932       C  0.64947439  0.25136578  0.03095033    -0.08120
C1933       C  0.66859100  0.25906672  0.99977825    -0.02680
C1934       C  0.70621267  0.26742391  0.00552849     0.04140
N1935       N  0.73140392  0.27255584  0.47816933     0.66650
H1936       H  0.74905956  0.27617253  0.04353349     0.15550
H1937       H  0.62164174  0.24346201  0.02922505     0.15260
N1938       N  0.64044100  0.25077607  0.09437529     0.74350
O1939       O  0.75128054  0.30043216  0.47873692    -0.39100
O1940       O  0.73923196  0.24678934  0.45827326    -0.39040
O1941       O  0.63803556  0.27630012  0.11652953    -0.39750
O1942       O  0.61761618  0.22526973  0.09470488    -0.39810
C1943       C  0.86194319  0.25415094  0.38467574    -0.12090
C1944       C  0.82638349  0.24186501  0.38050770     0.04910
C1945       C  0.81047023  0.22622951  0.40996785    -0.07380
C1946       C  0.82909207  0.22622133  0.44267864    -0.08120
C1947       C  0.86417751  0.24099003  0.44859462    -0.02680
C1948       C  0.88129824  0.25137369  0.41635338     0.04140
N1949       N  0.91911598  0.25359662  0.41260273     0.66650
H1950       H  0.87645034  0.26309048  0.36173279     0.15550
H1951       H  0.81743766  0.20900251  0.46105539     0.15260
N1952       N  0.77616934  0.20847660  0.40689775     0.74350
O1953       O  0.93620980  0.22568777  0.41476948    -0.39100
O1954       O  0.93337478  0.27947170  0.39684265    -0.39040
O1955       O  0.77025921  0.17916072  0.42132993    -0.39750
O1956       O  0.75068387  0.22392029  0.39324032    -0.39810
C1957       C  0.89169158  0.24171242  0.05294179    -0.12090
C1958       C  0.86816945  0.23462260  0.02371273     0.04910
C1959       C  0.83486896  0.21718888  0.03234447    -0.07380
C1960       C  0.83053458  0.20169063  0.06542236    -0.08120
C1961       C  0.85302784  0.21136140  0.09381190    -0.02680
C1962       C  0.88452781  0.23147808  0.08730020     0.04140
N1963       N  0.90861427  0.24402387  0.11524207     0.66650
H1964       H  0.91575769  0.25772029  0.04965238     0.15550
H1965       H  0.80464995  0.18992812  0.07169495     0.15260
N1966       N  0.80230636  0.22482081  0.01537636     0.74350
O1967       O  0.94128756  0.24944350  0.10881687    -0.39100
O1968       O  0.89744357  0.25171572  0.14580907    -0.39040
O1969       O  0.77611982  0.20269859  0.01508483    -0.39750
O1970       O  0.79806999  0.25540929  0.00447444    -0.39810
C1971       C  0.75039580  0.41554959  0.29038388    -0.12090
C1972       C  0.78170157  0.39616437  0.29287551     0.04910
C1973       C  0.81206519  0.41310032  0.30575885    -0.07380
C1974       C  0.80953047  0.44632169  0.32123681    -0.08120
C1975       C  0.77727383  0.46567053  0.32557897    -0.02680
C1976       C  0.74713443  0.44990393  0.30600350     0.04140
N1977       N  0.71259595  0.46568901  0.30278967     0.66650
H1978       H  0.72723140  0.40270090  0.27767386     0.15550
H1979       H  0.83494899  0.45428027  0.33100524     0.15260
N1980       N  0.84552336  0.39609384  0.30604703     0.74350
O1981       O  0.70443915  0.49320537  0.32020941    -0.39100
O1982       O  0.68994276  0.45243129  0.28088434    -0.39040
O1983       O  0.86155255  0.39012634  0.27735388    -0.39750
O1984       O  0.86152403  0.39228695  0.33492831    -0.39810
C1985       C  0.76182521  0.03662863  0.29903469    -0.12090
C1986       C  0.77435081  0.03646797  0.33446696     0.04910
C1987       C  0.78822524  0.07102410  0.34825936    -0.07380
C1988       C  0.78985260  0.10037494  0.32630304    -0.08120
C1989       C  0.77453411  0.09950480  0.29288741    -0.02680
C1990       C  0.75666750  0.06795199  0.28104006     0.04140
N1991       N  0.72903424  0.06818786  0.25480888     0.66650
H1992       H  0.75432639  0.01260023  0.28472993     0.15550
H1993       H  0.80199674  0.12529019  0.33647335     0.15260
N1994       N  0.80225587  0.07877889  0.38320402     0.74350
O1995       O  0.71712838  0.03939862  0.24042479    -0.39100
O1996       O  0.71043932  0.09512812  0.25311815    -0.39040
O1997       O  0.83322041  0.07012043  0.39091444    -0.39750
O1998       O  0.79093227  0.10568662  0.39966044    -0.39810
C1999       C  0.92052002  0.36036273  0.18102202    -0.12090
C2000       C  0.91168754  0.33043550  0.20015796     0.04910
C2001       C  0.93826099  0.31798099  0.22281556    -0.07380
C2002       C  0.97071704  0.33696502  0.22845802    -0.08120
C2003       C  0.98167795  0.36504882  0.20739102    -0.02680
C2004       C  0.95462395  0.37768338  0.18394478     0.04140
N2005       N  0.96036805  0.40789819  0.16254147     0.66650
H2006       H  0.90061882  0.37103989  0.16416481     0.15550
H2007       H  0.98898428  0.32722402  0.24738965     0.15260
N2008       N  0.93433864  0.28347181  0.23697112     0.74350
O2009       O  0.95640571  0.40433848  0.12947944    -0.39100
O2010       O  0.95972645  0.43853255  0.17667948    -0.39040
O2011       O  0.93007005  0.25730246  0.21558695    -0.39750
O2012       O  0.94400722  0.27836555  0.26827152    -0.39810
C2013       C  0.54740899  0.31628642  0.20467768    -0.12090
C2014       C  0.55252564  0.35371544  0.21009933     0.04910
C2015       C  0.58858981  0.36780311  0.20857676    -0.07380
C2016       C  0.61613640  0.34551820  0.20237821    -0.08120
C2017       C  0.61128363  0.30863664  0.20015856    -0.02680
C2018       C  0.57625743  0.29374019  0.19924570     0.04140
N2019       N  0.56897622  0.25699061  0.18979851     0.66650
H2020       H  0.52108360  0.30417345  0.20203093     0.15550
H2021       H  0.64273038  0.35774035  0.20087478     0.15260
N2022       N  0.59833532  0.40510334  0.21086809     0.74350
O2023       O  0.54324651  0.24821547  0.16941522    -0.39100
O2024       O  0.58803678  0.23319321  0.20124565    -0.39040
O2025       O  0.60071140  0.42090052  0.24070736    -0.39750
O2026       O  0.61520502  0.41858996  0.18547975    -0.39810
C2027       C  0.78954471  0.44905906  0.12888007    -0.12090
C2028       C  0.76162387  0.47330921  0.13044582     0.04910
C2029       C  0.73256729  0.46361111  0.15441168    -0.07380
C2030       C  0.73195426  0.42991237  0.17072181    -0.08120
C2031       C  0.75953280  0.40629017  0.16702151    -0.02680
C2032       C  0.78977805  0.41779871  0.14786956     0.04140
N2033       N  0.82195614  0.39857666  0.14842467     0.66650
H2034       H  0.81272394  0.45388007  0.11289227     0.15550
H2035       H  0.70912059  0.42169560  0.18625956     0.15260
N2036       N  0.70394592  0.48654604  0.16443255     0.74350
O2037       O  0.84063538  0.39540345  0.12093457    -0.39100
O2038       O  0.83426217  0.38919213  0.17753744    -0.39040
O2039       O  0.68742798  0.48159557  0.19295520    -0.39750
O2040       O  0.69382697  0.51082661  0.14533324    -0.39810
C2041       C  0.73344551  0.08126154  0.16449292    -0.12090
C2042       C  0.73187422  0.10847257  0.14013997     0.04910
C2043       C  0.74934869  0.10437348  0.10767361    -0.07380
C2044       C  0.76753246  0.07341182  0.10106230    -0.08120
C2045       C  0.76284562  0.04356615  0.12250940    -0.02680
C2046       C  0.75336619  0.05114150  0.15783518     0.04140
N2047       N  0.77511205  0.04002353  0.18641552     0.66650
H2048       H  0.72652316  0.08753160  0.19139791     0.15550
H2049       H  0.78306764  0.07155001  0.07721551     0.15260
N2050       N  0.75089046  0.13225429  0.08244301     0.74350
O2051       O  0.79418539  0.06298561  0.20359736    -0.39100
O2052       O  0.77321936  0.00875604  0.19703444    -0.39040
O2053       O  0.77160445  0.13051095  0.05631439    -0.39750
O2054       O  0.72894216  0.15666446  0.08391557    -0.39810
C2055       C  0.54962798  0.39370184  0.11443148    -0.12090
C2056       C  0.55681484  0.42980152  0.11344379     0.04910
C2057       C  0.55292024  0.45143612  0.14437875    -0.07380
C2058       C  0.54019260  0.43592901  0.17558086    -0.08120
C2059       C  0.53042704  0.39942870  0.17626963    -0.02680
C2060       C  0.53412271  0.37863330  0.14375006     0.04140
N2061       N  0.52341985  0.34166141  0.13960543     0.66650
H2062       H  0.55110904  0.37759662  0.09018264     0.15550
H2063       H  0.53899741  0.45233603  0.19937935     0.15260
N2064       N  0.56142481  0.48907118  0.14417132     0.74350
O2065       O  0.49081900  0.33259088  0.13760738    -0.39100
O2066       O  0.54551675  0.32031505  0.12712356    -0.39040
O2067       O  0.55306251  0.50905917  0.16994228    -0.39750
O2068       O  0.57965562  0.50220796  0.11952254    -0.39810
C2069       C  0.50373959  0.43251033  0.25485309    -0.12090
C2070       C  0.52419985  0.40220864  0.24854214     0.04910
C2071       C  0.54407534  0.39160413  0.27895557    -0.07380
C2072       C  0.54719521  0.41350828  0.30976834    -0.08120
C2073       C  0.52788859  0.44399018  0.31511724    -0.02680
C2074       C  0.50398623  0.45259291  0.28766681     0.04140
N2075       N  0.97828099  0.47972954  0.29289803     0.66650
H2076       H  0.98609210  0.43989020  0.23428422     0.15550
H2077       H  0.56306578  0.40468671  0.33149512     0.15260
N2078       N  0.56027463  0.35797875  0.28089181     0.74350
O2079       O  0.97362806  0.49425098  0.32292291    -0.39100
O2080       O  0.95749228  0.48690248  0.26815408    -0.39040
O2081       O  0.59302403  0.35727224  0.28814727    -0.39750
O2082       O  0.54084943  0.33050983  0.28566163    -0.39810
C2083       C  0.69579918  0.01735962  0.41786058    -0.12090
C2084       C  0.67400732  0.48672447  0.41296424     0.04910
C2085       C  0.68879313  0.45695167  0.39568055    -0.07380
C2086       C  0.72389840  0.46034654  0.38173895    -0.08120
C2087       C  0.74390277  0.49343632  0.38099074    -0.02680
C2088       C  0.73106864  0.02000258  0.40511525     0.04140
N2089       N  0.75449526  0.04496320  0.42371910     0.66650
H2090       H  0.68584381  0.03877733  0.43434474     0.15550
H2091       H  0.73480183  0.43687181  0.36980422     0.15260
N2092       N  0.66833757  0.42396975  0.39000157     0.74350
O2093       O  0.74221288  0.07303914  0.43708218    -0.39100
O2094       O  0.78298605  0.03423071  0.43632168    -0.39040
O2095       O  0.63476253  0.42321231  0.39030270    -0.39750
O2096       O  0.68364045  0.39596745  0.38095788    -0.39810
C2097       C  0.87779471  0.49792100  0.36500613    -0.12090
C2098       C  0.88015519  0.47207439  0.39035220     0.04910
C2099       C  0.84908433  0.45812363  0.40623065    -0.07380
C2100       C  0.81632785  0.47222351  0.39766264    -0.08120
C2101       C  0.81302886  0.49852036  0.37208042    -0.02680
C2102       C  0.84533730  0.51057254  0.35463474     0.04140
N2103       N  0.84547086  0.02844296  0.32165075     0.66650
H2104       H  0.90191427  0.50824985  0.35266448     0.15550
H2105       H  0.79275291  0.46016602  0.40915433     0.15260
N2106       N  0.84999479  0.42978751  0.43090956     0.74350
O2107       O  0.86116664  0.05847167  0.31964773    -0.39100
O2108       O  0.83825215  0.01103693  0.29330175    -0.39040
O2109       O  0.87728303  0.42515560  0.44936187    -0.39750
O2110       O  0.82296774  0.40927068  0.43469205    -0.39810
C2111       C  0.72420386  0.03153995  0.05444843    -0.12090
C2112       C  0.73016982  0.00405282  0.07825864     0.04910
C2113       C  0.70129975  0.47929435  0.08121530    -0.07380
C2114       C  0.66672202  0.49109009  0.07675476    -0.08120
C2115       C  0.66013732  0.02316164  0.05982907    -0.02680
C2116       C  0.68981911  0.04223058  0.04593413     0.04140
N2117       N  0.68618534  0.07111402  0.02219919     0.66650
H2118       H  0.74645428  0.04510581  0.04226332     0.15550
H2119       H  0.64450069  0.47282405  0.08213315     0.15260
N2120       N  0.70656546  0.44204403  0.08490759     0.74350
O2121       O  0.71179470  0.09327295  0.01805194    -0.39100
O2122       O  0.65870551  0.07350967  0.50341714    -0.39040
O2123       O  0.68204560  0.42197000  0.09683089    -0.39750
O2124       O  0.73352688  0.42825270  0.07129102    -0.39810
C2125       C  0.80011185  0.99702443  0.04602672    -0.12090
C2126       C  0.79955906  0.00672803  0.08238808     0.04910
C2127       C  0.83252810  0.02013727  0.09760408    -0.07380
C2128       C  0.86294441  0.02458237  0.07667145    -0.08120
C2129       C  0.86309364  0.01526121  0.04064740    -0.02680
C2130       C  0.83085319  0.00189478  0.02496173     0.04140
N2131       N  0.82849697  0.99294014  0.48792977     0.66650
H2132       H  0.77621548  0.98579530  0.03343792     0.15550
H2133       H  0.88744746  0.03455620  0.08913430     0.15260
N2134       N  0.83605600  0.02963187  0.13439506     0.74350
O2135       O  0.80370449  0.47201907  0.47648122    -0.39100
O2136       O  0.84650370  0.01073905  0.46619461    -0.39040
O2137       O  0.83987613  0.50556479  0.15621879    -0.39750
O2138       O  0.84554684  0.06115727  0.14339181    -0.39810
C2139       C  0.94683916  0.21489771  0.50312339    -0.12090
C2140       C  0.91306639  0.21191565  0.48500805     0.04910
C2141       C  0.90109709  0.17648881  0.97566194    -0.07380
C2142       C  0.92125858  0.14793907  0.48315149    -0.08120
C2143       C  0.95528243  0.15100670  0.49865544    -0.02680
C2144       C  0.96736684  0.18514202  0.51072370     0.04140
N2145       N  0.49873834  0.19008946  0.53235596     0.66650
H2146       H  0.95683266  0.24009760  0.51405695     0.15550
H2147       H  0.90916235  0.12212952  0.97575415     0.15260
N2148       N  0.86789593  0.16744617  0.95871031     0.74350
O2149       O  0.51791048  0.21824742  0.53073691    -0.39100
O2150       O  0.50350567  0.16976354  0.05757784    -0.39040
O2151       O  0.86767212  0.16253688  0.42555663    -0.39750
O2152       O  0.84365644  0.15226768  0.97642317    -0.39810
C2153       C  0.90141131  0.34550089  0.01133212    -0.12090
C2154       C  0.93398131  0.35358278  0.99520949     0.04910
C2155       C  0.94958739  0.32555820  0.47507213    -0.07380
C2156       C  0.93591879  0.29061370  0.47721212    -0.08120
C2157       C  0.90193525  0.28214830  0.49037486    -0.02680
C2158       C  0.88419446  0.31145475  0.00679742     0.04140
N2159       N  0.84788611  0.30851977  0.01721080     0.66650
H2160       H  0.88741172  0.36666774  0.02452877     0.15550
H2161       H  0.95128530  0.27029256  0.46495027     0.15260
N2162       N  0.47619657  0.33167378  0.44848395     0.74350
O2163       O  0.84078782  0.30526457  0.04952135    -0.39100
O2164       O  0.82511212  0.32172598  0.99759232    -0.39040
O2165       O  0.50057846  0.30988295  0.94487715    -0.39750
O2166       O  0.46758463  0.34803150  0.42145309    -0.39810
C2167       C  0.63346656  0.15491950  0.45204750    -0.12090
C2168       C  0.59701254  0.14779437  0.45036054     0.04910
C2169       C  0.57419809  0.17663414  0.45387671    -0.07380
C2170       C  0.58891896  0.21127537  0.46157884    -0.08120
C2171       C  0.62610318  0.21943903  0.46236182    -0.02680
C2172       C  0.64790913  0.18968950  0.45683298     0.04140
N2173       N  0.68528028  0.19392571  0.45335271     0.66650
H2174       H  0.65124721  0.13306831  0.44986603     0.15550
H2175       H  0.57048797  0.23199116  0.46249999     0.15260
N2176       N  0.53629967  0.17174177  0.44768487     0.74350
O2177       O  0.70455723  0.18558506  0.47883133    -0.39100
O2178       O  0.69743723  0.19124814  0.42248696    -0.39040
O2179       O  0.51641960  0.19775007  0.95096853    -0.39750
O2180       O  0.52339032  0.14329417  0.43345432    -0.39810
C2181       C  0.60635400  0.34759062  0.44802964    -0.12090
C2182       C  0.57235126  0.34693713  0.46243409     0.04910
C2183       C  0.56335653  0.32015058  0.48707384    -0.07380
C2184       C  0.58554341  0.29077031  0.48897652    -0.08120
C2185       C  0.61919680  0.29132224  0.47237765    -0.02680
C2186       C  0.63109081  0.32539519  0.46117809     0.04140
N2187       N  0.66509001  0.34122602  0.47164317     0.66650
H2188       H  0.61600672  0.37105103  0.43464698     0.15550
H2189       H  0.57739820  0.26923835  0.50548474     0.15260
N2190       N  0.53384202  0.32294282  0.51121612     0.74350
O2191       O  0.67964329  0.36521244  0.45346524    -0.39100
O2192       O  0.67642193  0.33730370  0.50257300    -0.39040
O2193       O  0.52090057  0.35254260  0.51871891    -0.39750
O2194       O  0.52286275  0.29628553  0.02796770    -0.39810
C2195       C  0.98237605  0.07007766  0.19734968    -0.12090
C2196       C  0.50509102  0.10083282  0.20323406     0.04910
C2197       C  0.52286603  0.11364609  0.17277419    -0.07380
C2198       C  0.52157970  0.09396855  0.14073232    -0.08120
C2199       C  0.50050646  0.06228223  0.13507116    -0.02680
C2200       C  0.97918198  0.05119955  0.16409544     0.04140
N2201       N  0.95291062  0.02244369  0.16067327     0.66650
H2202       H  0.96555712  0.06116440  0.21863105     0.15550
H2203       H  0.53684073  0.10522875  0.11934748     0.15260
N2204       N  0.54022362  0.14813833  0.17249951     0.74350
O2205       O  0.94281473  0.00641052  0.18782400    -0.39100
O2206       O  0.93382963  0.01891909  0.13327992    -0.39040
O2207       O  0.57302926  0.15076076  0.16562333    -0.39750
O2208       O  0.52154601  0.17448875  0.16757467    -0.39810
C2209       C  0.96282833  0.09486853  0.28712950    -0.12090
C2210       C  0.49666846  0.09463701  0.27020138     0.04910
C2211       C  0.52147058  0.07254760  0.28560935    -0.07380
C2212       C  0.51772598  0.06454394  0.32100106    -0.08120
C2213       C  0.48826257  0.07465533  0.34122500    -0.02680
C2214       C  0.95894739  0.08801669  0.32334498     0.04140
N2215       N  0.92723212  0.09884565  0.34127194     0.66650
H2216       H  0.94013613  0.10465526  0.27348016     0.15550
H2217       H  0.53818793  0.04940774  0.33277971     0.15260
N2218       N  0.54695295  0.05343332  0.26539768     0.74350
O2219       O  0.91054121  0.12465385  0.33028143    -0.39100
O2220       O  0.91344300  0.08072193  0.36539237    -0.39040
O2221       O  0.57690008  0.04766599  0.27870591    -0.39750
O2222       O  0.53687421  0.03568386  0.23810690    -0.39810
C2223       C  0.93492127  0.19014567  0.27348851    -0.12090
C2224       C  0.91307606  0.18969143  0.24368142     0.04910
C2225       C  0.92438558  0.17184455  0.21259523    -0.07380
C2226       C  0.95613767  0.15472051  0.21204999    -0.08120
C2227       C  0.97717487  0.15087708  0.24242307    -0.02680
C2228       C  0.96623661  0.17037007  0.27441444     0.04140
N2229       N  0.98418850  0.16928612  0.30850382     0.66650
H2230       H  0.92596110  0.20413475  0.29703914     0.15550
H2231       H  0.96207588  0.14213501  0.18698093     0.15260
N2232       N  0.90309038  0.16869244  0.18108821     0.74350
O2233       O  0.97100615  0.18419503  0.33551805    -0.39100
O2234       O  0.01304671  0.15412009  0.31244170    -0.39040
O2235       O  0.91592986  0.18084009  0.15304711    -0.39750
O2236       O  0.87959111  0.14382437  0.17844292    -0.39810
C2237       C  0.57487317  0.11800615  0.23765508    -0.12090
C2238       C  0.54577474  0.13933914  0.24637860     0.04910
C2239       C  0.55571151  0.17564127  0.25704573    -0.07380
C2240       C  0.59165002  0.18575878  0.26418951    -0.08120
C2241       C  0.61945173  0.16369257  0.25569260    -0.02680
C2242       C  0.61072750  0.12962998  0.24103552     0.04140
N2243       N  0.63751820  0.10729143  0.22661553     0.66650
H2244       H  0.57005262  0.09308501  0.22347508     0.15550
H2245       H  0.59829829  0.21313528  0.27217661     0.15260
N2246       N  0.53148764  0.20405834  0.25802191     0.74350
O2247       O  0.63464156  0.07415050  0.23016022    -0.39100
O2248       O  0.65988711  0.11940732  0.20488127    -0.39040
O2249       O  0.53264029  0.22618927  0.28384303    -0.39750
O2250       O  0.51673255  0.21274442  0.22986464    -0.39810
C2251       C  0.00648227  0.12194264  0.74049693    -0.02310
O2252       O  0.96472989  0.05881965  0.89869101    -0.86310
O2253       O  0.62713022  0.46954926  0.95374328    -0.86480
O2254       O  0.58153455  0.08745743  0.92888598    -0.88150
O2255       O  0.54366509  0.48923374  0.86162478    -0.86900
O2256       O  0.51029052  0.43870607  0.87440685    -0.86490
O2257       O  0.57327287  0.10545208  0.98699214    -0.87870
O2258       O  0.61641105  0.50950195  0.91101432    -0.86340
O2259       O  0.52346556  0.07117127  0.89113338    -0.85930
Zr2260     Zr  0.55475483  0.02564623  0.91857175     2.84310
O2261       O  0.55350617  0.46609087  0.93540298    -1.07910
O2262       O  0.52008226  0.05757807  0.95886014    -1.08640
C2263       C  0.49148503  0.06901368  0.87965489     1.06790
C2264       C  0.63661965  0.48800149  0.92661587     1.06740
C2265       C  0.58342961  0.11080881  0.95525296     1.09720
C2266       C  0.52716024  0.45890920  0.85265719     1.07500
H2267       H  0.60115510  0.03492336  0.97612790     0.33060
O2268       O  0.57697145  0.02531478  0.97627720    -1.28860
H2269       H  0.98608049  0.50063601  0.89557343     0.32730
O2270       O  0.49628881  0.50115713  0.91895903    -1.30540
O2271       O  0.57282983  0.44648711  0.55494477    -0.86310
O2272       O  0.90796158  0.03007108  0.99651395    -0.87800
O2273       O  0.60268616  0.04876340  0.54454559    -0.86380
O2274       O  0.53008657  0.38910935  0.94364598    -0.86430
O2275       O  0.93606891  0.44941420  0.90824562    -0.86150
O2276       O  0.50416801  0.11163824  0.51546713    -0.85950
O2277       O  0.98539131  0.01442294  0.58927196    -0.86320
O2278       O  0.95368289  0.41251105  0.52181358    -0.85790
O2279       O  0.52316629  0.06137712  0.57697861    -0.86850
O2280       O  0.95602460  0.39992766  0.96226230    -0.86010
O2281       O  0.62009664  0.49402694  0.52492110    -0.86410
O2282       O  0.96113585  0.09448768  0.97548974    -0.86130
O2283       O  0.91704874  0.50415412  0.92616802    -0.85780
O2284       O  0.57560791  0.40462694  0.98223135    -0.86190
O2285       O  0.51578518  0.44994391  0.57611665    -0.86480
O2286       O  0.91930790  0.49117687  0.53986621    -0.87820
Zr2287     Zr  0.57402945  0.46647078  0.99337451     2.83100
Zr2288     Zr  0.96200978  0.03432878  0.95840848     2.83500
Zr2289     Zr  0.54256994  0.05841020  0.51641824     2.84090
Zr2290     Zr  0.49468254  0.44280383  0.93662312     2.83360
Zr2291     Zr  0.98045951  0.47560179  0.53328033     2.84220
O2292       O  0.95922593  0.47586069  0.97543663    -1.08390
O2293       O  0.53925314  0.49941873  0.53215532    -1.07890
C2294       C  0.54874034  0.44367820  0.57925208     1.06770
C2295       C  0.89880548  0.01191700  0.52390511     1.09380
C2296       C  0.62499294  0.02299695  0.54250462     1.06940
C2297       C  0.55725191  0.38205957  0.96306069     1.07300
C2298       C  0.91339544  0.47438205  0.90954461     1.06880
C2299       C  0.97571312  0.11736869  0.99712718     1.06440
C2300       C  0.50262355  0.04427301  0.59826794     1.06860
C2301       C  0.94835593  0.39142107  0.49367457     1.06370
H2302       H  0.96865086  0.04905453  0.53114941     0.33050
O2303       O  0.98338007  0.03475008  0.51601501    -1.29490
H2304       H  0.51617466  0.41905371  0.50367698     0.33070
O2305       O  0.51603231  0.44258818  0.99474381    -1.30870
C2306       C  0.76366708  0.00589654  0.60407448    -0.02310
O2307       O  0.67772668  0.18615212  0.77602470    -0.86310
O2308       O  0.74820031  0.27774459  0.61357451    -0.86480
O2309       O  0.65139886  0.26047697  0.68715449    -0.88150
O2310       O  0.70945516  0.16479739  0.65897652    -0.86900
O2311       O  0.76664567  0.14906498  0.66979190    -0.86490
O2312       O  0.66644350  0.30656997  0.72546778    -0.87870
O2313       O  0.70125123  0.23954872  0.62647633    -0.86340
O2314       O  0.65943522  0.19165175  0.71849053    -0.85930
Zr2315     Zr  0.70467835  0.22420135  0.68721036     2.84310
O2316       O  0.76379579  0.22567681  0.66818855    -1.07910
O2317       O  0.70358135  0.24806863  0.74474740    -1.08640
C2318       C  0.65492499  0.18117398  0.75013048     1.06790
C2319       C  0.71826920  0.26024676  0.60557364     1.06740
C2320       C  0.64461809  0.28959390  0.70443803     1.09720
C2321       C  0.73550037  0.14349844  0.65687269     1.07500
H2322       H  0.71419282  0.29700198  0.67056526     0.33060
O2323       O  0.72829757  0.28280631  0.68551819    -1.28860
H2324       H  0.72759276  0.16675110  0.72629217     0.32730
O2325       O  0.73751624  0.19075112  0.72584727    -1.30540
O2326       O  0.85140687  0.31168543  0.67665049    -0.86310
O2327       O  0.78111271  0.22389822  0.83481737    -0.87800
O2328       O  0.73733248  0.36093244  0.70783547    -0.86380
O2329       O  0.82865456  0.19429202  0.64984569    -0.86430
O2330       O  0.78792521  0.13997447  0.74584479    -0.86150
O2331       O  0.69462929  0.30374735  0.79942210    -0.85950
O2332       O  0.80783346  0.33928736  0.77816432    -0.86320
O2333       O  0.87151238  0.23585439  0.75920036    -0.85790
O2334       O  0.74863175  0.34472627  0.78599430    -0.86850
O2335       O  0.85378230  0.18481429  0.72858836    -0.86010
O2336       O  0.77440845  0.34598852  0.66232371    -0.86410
O2337       O  0.70362039  0.24929102  0.82263483    -0.86130
O2338       O  0.75314300  0.15627223  0.79287455    -0.85780
O2339       O  0.82282587  0.25005081  0.62820745    -0.86190
O2340       O  0.86678304  0.30725808  0.73500041    -0.86480
O2341       O  0.82529514  0.26545527  0.82371700    -0.87820
Zr2342     Zr  0.78818663  0.28431330  0.66729068     2.83100
Zr2343     Zr  0.73824365  0.21596307  0.78307208     2.83500
Zr2344     Zr  0.72663013  0.30585434  0.74288340     2.84090
Zr2345     Zr  0.79603856  0.19191261  0.70662605     2.83360
Zr2346     Zr  0.81946905  0.27551234  0.76212618     2.84220
O2347       O  0.79683357  0.21676933  0.76359907    -1.08390
O2348       O  0.78587465  0.30876553  0.72433316    -1.07890
C2349       C  0.87390918  0.31582322  0.70334450     1.06770
C2350       C  0.80930542  0.24362626  0.84422166     1.09380
C2351       C  0.75651155  0.36876754  0.68022457     1.06940
C2352       C  0.83410624  0.21850241  0.62668318     1.07300
C2353       C  0.77165266  0.13390401  0.77552633     1.06880
C2354       C  0.69151760  0.28043526  0.82363803     1.06440
C2355       C  0.77997603  0.35771425  0.78533006     1.06860
C2356       C  0.87718836  0.20470405  0.74476172     1.06370
H2357       H  0.76095444  0.28484762  0.80543059     0.33050
O2358       O  0.76102708  0.27429253  0.78185755    -1.29490
H2359       H  0.84465189  0.24851769  0.69712952     0.33070
O2360       O  0.82045144  0.24977418  0.70527423    -1.30870
C2361       C  0.64358283  0.25876081  0.96535835    -0.02310
C2362       C  0.52147774  0.38037066  0.71126745    -0.02310
C2363       C  0.88528272  0.24256539  0.98618254    -0.02310
C2364       C  0.77642835  0.49928972  0.85342679    -0.02310
C2365       C  0.68679358  0.28801128  0.91942694    -0.12090
C2366       C  0.65654976  0.26601069  0.92635862     0.04910
C2367       C  0.63258158  0.26044267  0.89656771    -0.07380
C2368       C  0.64247250  0.27077422  0.86284372    -0.08120
C2369       C  0.67472164  0.28857943  0.85697222    -0.02680
C2370       C  0.69665024  0.29859512  0.88575440     0.04140
N2371       N  0.72953825  0.31883235  0.88112079     0.66650
H2372       H  0.70078202  0.30175753  0.93994550     0.15550
H2373       H  0.62530417  0.26321016  0.84051916     0.15260
N2374       N  0.59672776  0.24701285  0.89950041     0.74210
O2375       O  0.75527195  0.31585023  0.90212298    -0.39100
O2376       O  0.73226234  0.34143523  0.85741051    -0.39040
O2377       O  0.57296227  0.26852397  0.90734436    -0.39750
O2378       O  0.58767810  0.21824790  0.88322542    -0.39810
C2379       C  0.72091149  0.26990305  0.54008092    -0.12090
C2380       C  0.70081875  0.26294346  0.56999386     0.04910
C2381       C  0.66412294  0.25441566  0.56499363    -0.07380
C2382       C  0.64946546  0.25138370  0.53095192    -0.08120
C2383       C  0.66858203  0.25908302  0.49977932    -0.02680
C2384       C  0.70620486  0.26743578  0.50552871     0.04140
N2385       N  0.73141224  0.27254177  0.97816931     0.66650
H2386       H  0.74905393  0.27617632  0.54353243     0.15550
H2387       H  0.62163145  0.24348506  0.52922738     0.15260
N2388       N  0.64043539  0.25078878  0.59437727     0.74350
O2389       O  0.75128896  0.30041799  0.97873465    -0.39100
O2390       O  0.73923774  0.24677476  0.95827274    -0.39040
O2391       O  0.63803256  0.27631231  0.61653251    -0.39750
O2392       O  0.61760855  0.22528420  0.59470643    -0.39810
C2393       C  0.86194384  0.25414604  0.88467513    -0.12090
C2394       C  0.82638410  0.24186057  0.88050626     0.04910
C2395       C  0.81047103  0.22622302  0.90996554    -0.07380
C2396       C  0.82909243  0.22621368  0.94267673    -0.08120
C2397       C  0.86417819  0.24098133  0.94859347    -0.02680
C2398       C  0.88129903  0.25136588  0.91635245     0.04140
N2399       N  0.91911678  0.25358622  0.91260132     0.66650
H2400       H  0.87645105  0.26308673  0.86173267     0.15550
H2401       H  0.81743734  0.20899464  0.96105292     0.15260
N2402       N  0.77617153  0.20846760  0.90689374     0.74350
O2403       O  0.93620855  0.22567596  0.91476712    -0.39100
O2404       O  0.93337730  0.27946082  0.89684187    -0.39040
O2405       O  0.77026421  0.17914978  0.92132304    -0.39750
O2406       O  0.75068444  0.22391037  0.89323810    -0.39810
C2407       C  0.89168967  0.24171927  0.55294182    -0.12090
C2408       C  0.86816736  0.23463163  0.52371265     0.04910
C2409       C  0.83486614  0.21719854  0.53234343    -0.07380
C2410       C  0.83053240  0.20169673  0.56541963    -0.08120
C2411       C  0.85302619  0.21136472  0.59380959    -0.02680
C2412       C  0.88452615  0.23148199  0.58729925     0.04140
N2413       N  0.90861256  0.24402583  0.61524182     0.66650
H2414       H  0.91575601  0.25772706  0.54965309     0.15550
H2415       H  0.80464781  0.18993370  0.57169161     0.15260
N2416       N  0.80230298  0.22483235  0.51537660     0.74350
O2417       O  0.94128598  0.24944524  0.60881711    -0.39100
O2418       O  0.89744141  0.25171759  0.64580865    -0.39040
O2419       O  0.77611583  0.20271084  0.51508525    -0.39750
O2420       O  0.79806775  0.25542022  0.50447243    -0.39810
C2421       C  0.75040340  0.41555069  0.79038638    -0.12090
C2422       C  0.78170804  0.39616374  0.79287616     0.04910
C2423       C  0.81207477  0.41309950  0.80575346    -0.07380
C2424       C  0.80954451  0.44632328  0.82122747    -0.08120
C2425       C  0.77728823  0.46567089  0.82557641    -0.02680
C2426       C  0.74714589  0.44990565  0.80600467     0.04140
N2427       N  0.71260835  0.46569307  0.80279323     0.66650
H2428       H  0.72723680  0.40270326  0.77767920     0.15550
H2429       H  0.83496552  0.45428489  0.83098774     0.15260
N2430       N  0.84553217  0.39609159  0.80603813     0.74350
O2431       O  0.70445320  0.49320804  0.82021618    -0.39100
O2432       O  0.68995447  0.45243910  0.78088660    -0.39040
O2433       O  0.86155736  0.39012184  0.77734317    -0.39750
O2434       O  0.86153665  0.39228631  0.83491762    -0.39810
C2435       C  0.76182625  0.03662825  0.79903411    -0.12090
C2436       C  0.77435313  0.03646760  0.83446604     0.04910
C2437       C  0.78822667  0.07102385  0.84825845    -0.07380
C2438       C  0.78985438  0.10037457  0.82630175    -0.08120
C2439       C  0.77453602  0.09950427  0.79288589    -0.02680
C2440       C  0.75666861  0.06795157  0.78103929     0.04140
N2441       N  0.72903460  0.06818765  0.75480886     0.66650
H2442       H  0.75432576  0.01259981  0.78473003     0.15550
H2443       H  0.80199817  0.12528995  0.83647212     0.15260
N2444       N  0.80225480  0.07877905  0.88320394     0.74350
O2445       O  0.71712792  0.03939846  0.74042532    -0.39100
O2446       O  0.71043995  0.09512813  0.75311854    -0.39040
O2447       O  0.83321820  0.07011965  0.89091750    -0.39750
O2448       O  0.79093005  0.10568685  0.89965926    -0.39810
C2449       C  0.92051684  0.36036346  0.68101901    -0.12090
C2450       C  0.91168541  0.33043506  0.70015358     0.04910
C2451       C  0.93826004  0.31797906  0.72280893    -0.07380
C2452       C  0.97071701  0.33696187  0.72844961    -0.08120
C2453       C  0.98167652  0.36504721  0.70738401    -0.02680
C2454       C  0.95462081  0.37768402  0.68394106     0.04140
N2455       N  0.96036244  0.40790230  0.66254191     0.66650
H2456       H  0.90061445  0.37104217  0.66416421     0.15550
H2457       H  0.98898548  0.32721949  0.74737932     0.15260
N2458       N  0.93433733  0.28347007  0.73696480     0.74350
O2459       O  0.95639946  0.40434675  0.62947966    -0.39100
O2460       O  0.95971794  0.43853473  0.67668410    -0.39040
O2461       O  0.93006810  0.25730058  0.71558093    -0.39750
O2462       O  0.94400632  0.27836401  0.76826512    -0.39810
C2463       C  0.54740806  0.31628534  0.70466391    -0.12090
C2464       C  0.55252454  0.35371422  0.71008565     0.04910
C2465       C  0.58858851  0.36780226  0.70856223    -0.07380
C2466       C  0.61613577  0.34551730  0.70236726    -0.08120
C2467       C  0.61128309  0.30863576  0.70015096    -0.02680
C2468       C  0.57625695  0.29373910  0.69923548     0.04140
N2469       N  0.56897659  0.25698883  0.68979097     0.66650
H2470       H  0.52108270  0.30417231  0.70201659     0.15550
H2471       H  0.64272989  0.35773931  0.70086485     0.15260
N2472       N  0.59833335  0.40510257  0.71085202     0.74350
O2473       O  0.54324798  0.24821179  0.66940698    -0.39100
O2474       O  0.58803573  0.23319251  0.70124267    -0.39040
O2475       O  0.60070886  0.42090121  0.74069062    -0.39750
O2476       O  0.61520154  0.41858882  0.68546255    -0.39810
C2477       C  0.78952111  0.44905614  0.62886330    -0.12090
C2478       C  0.76160269  0.47330889  0.63043864     0.04910
C2479       C  0.73255202  0.46361092  0.65441161    -0.07380
C2480       C  0.73194237  0.42991150  0.67072077    -0.08120
C2481       C  0.75951976  0.40628856  0.66701365    -0.02680
C2482       C  0.78975947  0.41779614  0.64785282     0.04140
N2483       N  0.82193808  0.39857444  0.64839965     0.66650
H2484       H  0.81269582  0.45387533  0.61286872     0.15550
H2485       H  0.70911285  0.42169548  0.68626467     0.15260
N2486       N  0.70393469  0.48654706  0.66444201     0.74350
O2487       O  0.84060869  0.39539874  0.62090397    -0.39100
O2488       O  0.83425417  0.38919427  0.67750976    -0.39040
O2489       O  0.68742482  0.48159631  0.69296916    -0.39750
O2490       O  0.69381091  0.51082860  0.64534666    -0.39810
C2491       C  0.73344246  0.08126228  0.66449230    -0.12090
C2492       C  0.73187202  0.10847299  0.64013888     0.04910
C2493       C  0.74934760  0.10437381  0.60767320    -0.07380
C2494       C  0.76753188  0.07341244  0.60106300    -0.08120
C2495       C  0.76284430  0.04356702  0.62251035    -0.02680
C2496       C  0.75336395  0.05114264  0.65783570     0.04140
N2497       N  0.77510991  0.04002603  0.68641656     0.66650
H2498       H  0.72651903  0.08753252  0.69139701     0.15550
H2499       H  0.78306758  0.07155050  0.57721656     0.15260
N2500       N  0.75089044  0.13225461  0.58244259     0.74350
O2501       O  0.79418265  0.06298894  0.70359795    -0.39100
O2502       O  0.77321952  0.00875831  0.69703499    -0.39040
O2503       O  0.77160677  0.13051219  0.55631575    -0.39750
O2504       O  0.72894134  0.15666410  0.58391352    -0.39810
C2505       C  0.54961409  0.39371466  0.61442240    -0.12090
C2506       C  0.55679843  0.42981499  0.61343900     0.04910
C2507       C  0.55290691  0.45144542  0.64437706    -0.07380
C2508       C  0.54018518  0.43593325  0.67557876    -0.08120
C2509       C  0.53042229  0.39943205  0.67626375    -0.02680
C2510       C  0.53411547  0.37864095  0.64374139     0.04140
N2511       N  0.52341635  0.34166841  0.63959423     0.66650
H2512       H  0.55109309  0.37761262  0.59017136     0.15550
H2513       H  0.53899212  0.45233714  0.69937949     0.15260
N2514       N  0.56140896  0.48908110  0.64417339     0.74350
O2515       O  0.49081619  0.33259471  0.63759709    -0.39100
O2516       O  0.54551520  0.32032532  0.62711008    -0.39040
O2517       O  0.55304908  0.50906518  0.66994813    -0.39750
O2518       O  0.57963526  0.50222241  0.61952385    -0.39810
C2519       C  0.50374074  0.43250239  0.75485250    -0.12090
C2520       C  0.52420127  0.40220199  0.74853610     0.04910
C2521       C  0.54408015  0.39159423  0.77894605    -0.07380
C2522       C  0.54720250  0.41349484  0.80976084    -0.08120
C2523       C  0.52789574  0.44397572  0.81511491    -0.02680
C2524       C  0.50399050  0.45258143  0.78766813     0.04140
N2525       N  0.97828587  0.47971781  0.79290479     0.66650
H2526       H  0.98609100  0.43988420  0.73428631     0.15550
H2527       H  0.56307534  0.40467113  0.83148499     0.15260
N2528       N  0.56027972  0.35796855  0.78087713     0.74350
O2529       O  0.97363670  0.49423714  0.82293130    -0.39100
O2530       O  0.95749463  0.48689329  0.76816383    -0.39040
O2531       O  0.59302986  0.35726137  0.78812908    -0.39750
O2532       O  0.54085508  0.33049911  0.78564636    -0.39810
C2533       C  0.69580088  0.01735680  0.91785860    -0.12090
C2534       C  0.67402678  0.48670776  0.91296735     0.04910
C2535       C  0.68881482  0.45693752  0.89568128    -0.07380
C2536       C  0.72391959  0.46033663  0.88173950    -0.08120
C2537       C  0.74392063  0.49342845  0.88099233    -0.02680
C2538       C  0.73107054  0.02000072  0.90511367     0.04140
N2539       N  0.75449683  0.04496058  0.92371895     0.66650
H2540       H  0.68584439  0.03877467  0.93434178     0.15550
H2541       H  0.73482563  0.43686348  0.86980416     0.15260
N2542       N  0.66836223  0.42395405  0.89000031     0.74350
O2543       O  0.74221422  0.07303579  0.93708343    -0.39100
O2544       O  0.78298776  0.03422764  0.93632086    -0.39040
O2545       O  0.63478720  0.42319245  0.89030632    -0.39750
O2546       O  0.68366726  0.39595475  0.88095064    -0.39810
C2547       C  0.87781183  0.49791342  0.86500853    -0.12090
C2548       C  0.88017146  0.47206258  0.89035069     0.04910
C2549       C  0.84909997  0.45811056  0.90622684    -0.07380
C2550       C  0.81634409  0.47221237  0.89766022    -0.08120
C2551       C  0.81304590  0.49851285  0.87208141    -0.02680
C2552       C  0.84535484  0.51056774  0.85463889     0.04140
N2553       N  0.84547657  0.02844942  0.82165750     0.66650
H2554       H  0.90193185  0.50824437  0.85266930     0.15550
H2555       H  0.79276918  0.46015483  0.90915183     0.15260
N2556       N  0.85000918  0.42977183  0.93090290     0.74350
O2557       O  0.86117405  0.05847780  0.81965983    -0.39100
O2558       O  0.83825681  0.01104910  0.79330544    -0.39040
O2559       O  0.87729609  0.42513879  0.94935678    -0.39750
O2560       O  0.82298182  0.40925470  0.93468232    -0.39810
C2561       C  0.72420339  0.03154117  0.55444884    -0.12090
C2562       C  0.73016826  0.00405421  0.57825963     0.04910
C2563       C  0.70126637  0.47931360  0.58122203    -0.07380
C2564       C  0.66669172  0.49111961  0.57676601    -0.08120
C2565       C  0.66013640  0.02316543  0.55982889    -0.02680
C2566       C  0.68981912  0.04223300  0.54593397     0.04140
N2567       N  0.68618685  0.07111627  0.52219852     0.66650
H2568       H  0.74645439  0.04510621  0.54226389     0.15550
H2569       H  0.64446626  0.47285991  0.58214825     0.15260
N2570       N  0.70652054  0.44206153  0.58491601     0.74350
O2571       O  0.71179761  0.09327332  0.51805012    -0.39100
O2572       O  0.65870432  0.07350567  0.00341698    -0.39040
O2573       O  0.68199688  0.42199652  0.59684611    -0.39750
O2574       O  0.73347383  0.42825982  0.57129401    -0.39810
C2575       C  0.80011088  0.99702672  0.54602856    -0.12090
C2576       C  0.79955790  0.00672918  0.58239002     0.04910
C2577       C  0.83252653  0.02013979  0.59760606    -0.07380
C2578       C  0.86294203  0.02458867  0.57667288    -0.08120
C2579       C  0.86309113  0.01526949  0.54064836    -0.02680
C2580       C  0.83085139  0.00190062  0.52496315     0.04140
N2581       N  0.82849897  0.99293313  0.98792846     0.66650
H2582       H  0.77621499  0.98579615  0.53343998     0.15550
H2583       H  0.88744476  0.03456353  0.58913569     0.15260
N2584       N  0.83605461  0.02963280  0.63439740     0.74350
O2585       O  0.80373007  0.47199895  0.97648890    -0.39100
O2586       O  0.84650609  0.01073116  0.96619291    -0.39040
O2587       O  0.83986391  0.50555009  0.65620937    -0.39750
O2588       O  0.84554641  0.06115761  0.64339549    -0.39810
C2589       C  0.94683831  0.21488566  0.00312403    -0.12090
C2590       C  0.91306652  0.21190481  0.98500681     0.04910
C2591       C  0.90109680  0.17649894  0.47566589    -0.07380
C2592       C  0.92125923  0.14792854  0.98314522    -0.08120
C2593       C  0.95528183  0.15099534  0.99865231    -0.02680
C2594       C  0.96736514  0.18512962  0.01072399     0.04140
N2595       N  0.49873467  0.19007549  0.03235926     0.66650
H2596       H  0.95683187  0.24008484  0.01405916     0.15550
H2597       H  0.90916104  0.12213950  0.47576358     0.15260
N2598       N  0.86789608  0.16745520  0.45871388     0.74350
O2599       O  0.51790824  0.21823270  0.03074221    -0.39100
O2600       O  0.50351309  0.16977784  0.55757401    -0.39040
O2601       O  0.86767132  0.16252798  0.92555304    -0.39750
O2602       O  0.84365680  0.15227597  0.47642642    -0.39810
C2603       C  0.90140411  0.34551271  0.51133287    -0.12090
C2604       C  0.93397223  0.35359724  0.49520798     0.04910
C2605       C  0.94959497  0.32554283  0.97507373    -0.07380
C2606       C  0.93592297  0.29059961  0.97721173    -0.08120
C2607       C  0.90193842  0.28213688  0.99037311    -0.02680
C2608       C  0.88418981  0.31146519  0.50679977     0.04140
N2609       N  0.84788229  0.30852813  0.51721562     0.66650
H2610       H  0.88740359  0.36667847  0.52453027     0.15550
H2611       H  0.95128797  0.27027748  0.96494948     0.15260
N2612       N  0.47620591  0.33165658  0.94848695     0.74350
O2613       O  0.84078670  0.30526836  0.54952618    -0.39100
O2614       O  0.82510680  0.32173798  0.49760149    -0.39040
O2615       O  0.50057055  0.30990196  0.44487250    -0.39750
O2616       O  0.46759627  0.34801415  0.92145523    -0.39810
C2617       C  0.63347282  0.15490372  0.95204358    -0.12090
C2618       C  0.59701849  0.14778059  0.95035840     0.04910
C2619       C  0.57420529  0.17662087  0.95387668    -0.07380
C2620       C  0.58892777  0.21126100  0.96157891    -0.08120
C2621       C  0.62611229  0.21942294  0.96236025    -0.02680
C2622       C  0.64791702  0.18967286  0.95682995     0.04140
N2623       N  0.68528842  0.19390739  0.95335072     0.66650
H2624       H  0.65125231  0.13305163  0.94986105     0.15550
H2625       H  0.57049752  0.23197736  0.96250109     0.15260
N2626       N  0.53630634  0.17172994  0.94768734     0.74350
O2627       O  0.70456375  0.18557231  0.97883269    -0.39100
O2628       O  0.69744681  0.19122164  0.92248608    -0.39040
O2629       O  0.51641226  0.19776185  0.45096113    -0.39750
O2630       O  0.52339545  0.14328409  0.93345449    -0.39810
C2631       C  0.60635779  0.34756668  0.94802122    -0.12090
C2632       C  0.57235783  0.34691467  0.96243168     0.04910
C2633       C  0.56336669  0.32013122  0.98707585    -0.07380
C2634       C  0.58555498  0.29075252  0.98897951    -0.08120
C2635       C  0.61920615  0.29130431  0.97237645    -0.02680
C2636       C  0.63109714  0.32537628  0.96117249     0.04140
N2637       N  0.66509426  0.34121214  0.97163748     0.66650
H2638       H  0.61600777  0.37102517  0.93463373     0.15550
H2639       H  0.57741173  0.26922146  0.00548964     0.15260
N2640       N  0.53385398  0.32292454  0.01122027     0.74350
O2641       O  0.67964432  0.36520008  0.95345922    -0.39100
O2642       O  0.67642811  0.33729034  0.00256670    -0.39040
O2643       O  0.52090872  0.35252361  0.01871794    -0.39750
O2644       O  0.52284587  0.29630157  0.52795748    -0.39810
C2645       C  0.98237649  0.07007958  0.69735105    -0.12090
C2646       C  0.50509166  0.10083445  0.70323628     0.04910
C2647       C  0.52286638  0.11364892  0.67277673    -0.07380
C2648       C  0.52157956  0.09397279  0.64073415    -0.08120
C2649       C  0.50050610  0.06228683  0.63507210    -0.02680
C2650       C  0.97918212  0.05120282  0.66409617     0.04140
N2651       N  0.95291103  0.02244691  0.66067314     0.66650
H2652       H  0.96555766  0.06116558  0.71863222     0.15550
H2653       H  0.53684016  0.10523396  0.61934951     0.15260
N2654       N  0.54022284  0.14814168  0.67250278     0.74350
O2655       O  0.94281744  0.00641096  0.68782299    -0.39100
O2656       O  0.93382791  0.01892503  0.63328106    -0.39040
O2657       O  0.57302901  0.15076508  0.66562927    -0.39750
O2658       O  0.52154461  0.17449094  0.66757462    -0.39810
C2659       C  0.96282874  0.09487069  0.78713328    -0.12090
C2660       C  0.49666814  0.09463788  0.77020370     0.04910
C2661       C  0.52146892  0.07254503  0.78560903    -0.07380
C2662       C  0.51772397  0.06453741  0.82099967    -0.08120
C2663       C  0.48826257  0.07465002  0.84122582    -0.02680
C2664       C  0.95894848  0.08801688  0.82334849     0.04140
N2665       N  0.92723559  0.09884939  0.84127777     0.66650
H2666       H  0.94013666  0.10465943  0.77348543     0.15550
H2667       H  0.53818456  0.04939762  0.83277593     0.15260
N2668       N  0.54695106  0.05343218  0.76539576     0.74350
O2669       O  0.91054495  0.12465747  0.83028657    -0.39100
O2670       O  0.91344903  0.08073044  0.86540304    -0.39040
O2671       O  0.57689856  0.04766465  0.77870308    -0.39750
O2672       O  0.53687160  0.03568294  0.73810513    -0.39810
C2673       C  0.93492047  0.19014667  0.77348886    -0.12090
C2674       C  0.91307573  0.18969185  0.74368134     0.04910
C2675       C  0.92438606  0.17184520  0.71259548    -0.07380
C2676       C  0.95613807  0.15472122  0.71205109    -0.08120
C2677       C  0.97717484  0.15087816  0.74242459    -0.02680
C2678       C  0.96623620  0.17037168  0.77441546     0.04140
N2679       N  0.98418798  0.16928868  0.80850499     0.66650
H2680       H  0.92595974  0.20413583  0.79703921     0.15550
H2681       H  0.96207649  0.14213565  0.68698216     0.15260
N2682       N  0.90309196  0.16869375  0.68108771     0.74350
O2683       O  0.97100639  0.18419967  0.83551847    -0.39100
O2684       O  0.01304538  0.15412139  0.81244369    -0.39040
O2685       O  0.91593199  0.18084299  0.65304754    -0.39750
O2686       O  0.87959321  0.14382532  0.67844078    -0.39810
C2687       C  0.57487302  0.11800694  0.73765787    -0.12090
C2688       C  0.54577466  0.13934008  0.74638133     0.04910
C2689       C  0.55571153  0.17564240  0.75704765    -0.07380
C2690       C  0.59165015  0.18576015  0.76419041    -0.08120
C2691       C  0.61945168  0.16369370  0.75569359    -0.02680
C2692       C  0.61072734  0.12963077  0.74103761     0.04140
N2693       N  0.63751786  0.10729208  0.72661746     0.66650
H2694       H  0.57005248  0.09308597  0.72347764     0.15550
H2695       H  0.59829853  0.21313687  0.77217661     0.15260
N2696       N  0.53148772  0.20405949  0.75802333     0.74350
O2697       O  0.63464150  0.07415125  0.73016286    -0.39100
O2698       O  0.65988623  0.11940765  0.70488251    -0.39040
O2699       O  0.53264004  0.22619040  0.78384448    -0.39750
O2700       O  0.51673380  0.21274597  0.72986557    -0.39810
C2701       C  0.00648486  0.62194795  0.24048825    -0.02310
O2702       O  0.96472277  0.55883684  0.39868823    -0.86310
O2703       O  0.62712344  0.96957373  0.45373964    -0.86480
O2704       O  0.58152628  0.58746692  0.42888713    -0.88150
O2705       O  0.54366136  0.98925339  0.36162496    -0.86900
O2706       O  0.51028965  0.93872401  0.37440621    -0.86490
O2707       O  0.57326229  0.60546254  0.48699263    -0.87870
O2708       O  0.61640411  0.00952944  0.41101366    -0.86340
O2709       O  0.52345911  0.57118780  0.39114184    -0.85930
Zr2710     Zr  0.55474408  0.52565553  0.41857264     2.84310
O2711       O  0.55350223  0.96611376  0.43540052    -1.07910
O2712       O  0.52007152  0.55758772  0.45886047    -1.08640
C2713       C  0.49148179  0.56902851  0.37965548     1.06790
C2714       C  0.63661267  0.98802744  0.42661342     1.06740
C2715       C  0.58342051  0.61081907  0.45525379     1.09720
C2716       C  0.52715892  0.95892766  0.35265688     1.07500
H2717       H  0.60114406  0.53493025  0.47613002     0.33060
O2718       O  0.57695979  0.52532320  0.47627877    -1.28860
H2719       H  0.98607461  0.00065369  0.39557411     0.32730
O2720       O  0.49628163  0.00117727  0.41896026    -1.30540
O2721       O  0.57284854  0.94648051  0.05494348    -0.86310
O2722       O  0.90794800  0.53008524  0.49651301    -0.87800
O2723       O  0.60270123  0.54874139  0.04454094    -0.86380
O2724       O  0.53008883  0.88912906  0.44364709    -0.86430
O2725       O  0.93606810  0.94942809  0.40824268    -0.86150
O2726       O  0.50420642  0.61163877  0.01544437    -0.85950
O2727       O  0.98539707  0.51441577  0.08927025    -0.86320
O2728       O  0.95370308  0.91249980  0.02181633    -0.85790
O2729       O  0.52317414  0.56136800  0.07697508    -0.86850
O2730       O  0.95602527  0.89994276  0.46225940    -0.86010
O2731       O  0.62011213  0.99402209  0.02491532    -0.86410
O2732       O  0.96112736  0.59450060  0.47549031    -0.86130
O2733       O  0.91704259  0.00416502  0.42616860    -0.85780
O2734       O  0.57561176  0.90465037  0.48222909    -0.86190
O2735       O  0.51580373  0.94993463  0.07611554    -0.86480
O2736       O  0.91932225  0.99116240  0.03986656    -0.87820
Zr2737     Zr  0.57402487  0.96649373  0.49337203     2.83100
Zr2738     Zr  0.96199725  0.53434270  0.45840631     2.83500
Zr2739     Zr  0.54258440  0.55839274  0.01641640     2.84090
Zr2740     Zr  0.49468058  0.94282242  0.43662171     2.83360
Zr2741     Zr  0.98047552  0.97559012  0.03328043     2.84220
O2742       O  0.95922174  0.97588001  0.47543331    -1.08390
O2743       O  0.53926830  0.99940838  0.03215406    -1.07890
C2744       C  0.54875935  0.94367121  0.07925112     1.06770
C2745       C  0.89881611  0.51190741  0.02390927     1.09380
C2746       C  0.62500279  0.52297008  0.04250597     1.06940
C2747       C  0.55725621  0.88208103  0.46306032     1.07300
C2748       C  0.91339223  0.97439345  0.40954329     1.06880
C2749       C  0.97570576  0.61738242  0.49712595     1.06440
C2750       C  0.50262836  0.54426706  0.09826433     1.06860
C2751       C  0.94837209  0.89141264  0.99367654     1.06370
H2752       H  0.96866434  0.54904139  0.03114750     0.33050
O2753       O  0.98339271  0.53473430  0.01601474    -1.29490
H2754       H  0.51619318  0.91904234  0.00367557     0.33070
O2755       O  0.51602923  0.94260626  0.49474202    -1.30870
C2756       C  0.76368056  0.50589435  0.10408124    -0.02310
O2757       O  0.67772561  0.68615915  0.27601713    -0.86310
O2758       O  0.74821268  0.77774501  0.11357031    -0.86480
O2759       O  0.65140436  0.76048227  0.18714818    -0.88150
O2760       O  0.70946410  0.66479914  0.15897493    -0.86900
O2761       O  0.76665531  0.64906863  0.16978990    -0.86490
O2762       O  0.66644700  0.80657260  0.22546515    -0.87870
O2763       O  0.70126340  0.73954890  0.12647107    -0.86340
O2764       O  0.65943768  0.69166117  0.21848220    -0.85930
Zr2765     Zr  0.70468482  0.72420570  0.18720540     2.84310
O2766       O  0.76380310  0.72568104  0.16818644    -1.07910
O2767       O  0.70358481  0.74807176  0.24474259    -1.08640
C2768       C  0.65492513  0.68118333  0.25012155     1.06790
C2769       C  0.71828267  0.76024571  0.10556849     1.06740
C2770       C  0.64462221  0.78959788  0.20443389     1.09720
C2771       C  0.73550997  0.64350055  0.15687156     1.07500
H2772       H  0.71420040  0.79700594  0.17056103     0.33060
O2773       O  0.72830445  0.78281045  0.18551483    -1.28860
H2774       H  0.72759634  0.66675502  0.22628789     0.32730
O2775       O  0.73752021  0.69075493  0.22584382    -1.30540
O2776       O  0.85141370  0.81169127  0.17665241    -0.86310
O2777       O  0.78110751  0.72390454  0.33481912    -0.87800
O2778       O  0.73733905  0.86093583  0.20783499    -0.86380
O2779       O  0.82866221  0.69429693  0.14984499    -0.86430
O2780       O  0.78792496  0.63997618  0.24584082    -0.86150
O2781       O  0.69463048  0.80374891  0.29941980    -0.85950
O2782       O  0.80783089  0.83929068  0.27817819    -0.86320
O2783       O  0.87151543  0.73586121  0.25920184    -0.85790
O2784       O  0.74862763  0.84472231  0.28600187    -0.86850
O2785       O  0.85378361  0.68481838  0.22859539    -0.86010
O2786       O  0.77441462  0.84599136  0.16232273    -0.86410
O2787       O  0.70361789  0.74929122  0.32263110    -0.86130
O2788       O  0.75314067  0.65627271  0.29286941    -0.85780
O2789       O  0.82283678  0.75005543  0.12820512    -0.86190
O2790       O  0.86678540  0.80726730  0.23500385    -0.86480
O2791       O  0.82529196  0.76545914  0.32371733    -0.87820
Zr2792     Zr  0.78819473  0.78431701  0.16728930     2.83100
Zr2793     Zr  0.73824435  0.71596556  0.28306910     2.83500
Zr2794     Zr  0.72663336  0.80585738  0.24288096     2.84090
Zr2795     Zr  0.79604366  0.69191720  0.20662551     2.83360
Zr2796     Zr  0.81947106  0.77551805  0.26212713     2.84220
O2797       O  0.79683570  0.71677416  0.26359886    -1.08390
O2798       O  0.78587874  0.80877088  0.22433207    -1.07890
C2799       C  0.87391380  0.81583155  0.20334802     1.06770
C2800       C  0.80930011  0.74363289  0.34422317     1.09380
C2801       C  0.75651826  0.86877042  0.18022407     1.06940
C2802       C  0.83411623  0.71850640  0.12668157     1.07300
C2803       C  0.77164994  0.63390425  0.27552086     1.06880
C2804       C  0.69151642  0.78043600  0.32363507     1.06440
C2805       C  0.77997078  0.85771366  0.28534515     1.06860
C2806       C  0.87719051  0.70470966  0.24476544     1.06370
H2807       H  0.76095397  0.78484825  0.30542874     0.33050
O2808       O  0.76102819  0.77429461  0.28185517    -1.29490
H2809       H  0.84465820  0.74852271  0.19713158     0.33070
O2810       O  0.82045731  0.74977890  0.20527519    -1.30870
C2811       C  0.64357983  0.75877147  0.46535986    -0.02310
C2812       C  0.52148373  0.88037974  0.21127024    -0.02310
C2813       C  0.88527900  0.74258294  0.48618347    -0.02310
C2814       C  0.77642202  0.99929593  0.35342929    -0.02310
C2815       C  0.68679194  0.78801589  0.41942530    -0.12090
C2816       C  0.65654675  0.76601806  0.42635913     0.04910
C2817       C  0.63257856  0.76044874  0.39656821    -0.07380
C2818       C  0.64247095  0.77077527  0.36284272    -0.08120
C2819       C  0.67472020  0.78857992  0.35696987    -0.02680
C2820       C  0.69664845  0.79859721  0.38575180     0.04140
N2821       N  0.72953560  0.81883495  0.38111705     0.66650
H2822       H  0.70078207  0.80176220  0.43994253     0.15550
H2823       H  0.62530260  0.76320985  0.34051858     0.15260
N2824       N  0.59672321  0.74702370  0.39950217     0.74210
O2825       O  0.75527307  0.81584695  0.40211335    -0.39100
O2826       O  0.73225358  0.84144686  0.35741489    -0.39040
O2827       O  0.57296102  0.76853820  0.40734691    -0.39750
O2828       O  0.58766913  0.71825977  0.38322754    -0.39810
C2829       C  0.72092880  0.76988610  0.04007344    -0.12090
C2830       C  0.70083418  0.76293838  0.06998788     0.04910
C2831       C  0.66413745  0.75441478  0.06498952    -0.07380
C2832       C  0.64948037  0.75137432  0.03094833    -0.08120
C2833       C  0.66859786  0.75906477  0.99977428    -0.02680
C2834       C  0.70622208  0.76741369  0.00552145     0.04140
N2835       N  0.73140978  0.77254947  0.47817080     0.66650
H2836       H  0.74907215  0.77615480  0.04352411     0.15550
H2837       H  0.62164525  0.74347946  0.02922504     0.15260
N2838       N  0.64044906  0.75080121  0.09437423     0.74350
O2839       O  0.75128710  0.80042520  0.47873421    -0.39100
O2840       O  0.73923525  0.74678061  0.45827651    -0.39040
O2841       O  0.63805485  0.77632974  0.11652513    -0.39750
O2842       O  0.61761512  0.72530317  0.09470924    -0.39810
C2843       C  0.86193547  0.75416194  0.38467781    -0.12090
C2844       C  0.82637706  0.74187195  0.38050889     0.04910
C2845       C  0.81046485  0.72623569  0.40996924    -0.07380
C2846       C  0.82908561  0.72623200  0.44268123    -0.08120
C2847       C  0.86417140  0.74100052  0.44859648    -0.02680
C2848       C  0.88129081  0.75138589  0.41635521     0.04140
N2849       N  0.91910840  0.75361313  0.41260455     0.66650
H2850       H  0.87644242  0.76310315  0.36173540     0.15550
H2851       H  0.81743169  0.70901361  0.46105822     0.15260
N2852       N  0.77616953  0.70847158  0.40689694     0.74350
O2853       O  0.93620463  0.72570519  0.41476577    -0.39100
O2854       O  0.93336424  0.77949183  0.39684775    -0.39040
O2855       O  0.77027104  0.67915108  0.42132381    -0.39750
O2856       O  0.75067772  0.72390685  0.39324086    -0.39810
C2857       C  0.89171154  0.74170553  0.05293726    -0.12090
C2858       C  0.86819333  0.73461443  0.02370535     0.04910
C2859       C  0.83488991  0.71718403  0.03233618    -0.07380
C2860       C  0.83054933  0.70169220  0.06541687    -0.08120
C2861       C  0.85303876  0.71136591  0.09380849    -0.02680
C2862       C  0.88454141  0.73147851  0.08729732     0.04140
N2863       N  0.90862433  0.74402848  0.11524070     0.66650
H2864       H  0.91577494  0.75771777  0.04965173     0.15550
H2865       H  0.80466296  0.68993243  0.07168767     0.15260
N2866       N  0.80232901  0.72481420  0.01536375     0.74350
O2867       O  0.94129890  0.74944479  0.10881951    -0.39100
O2868       O  0.89744972  0.75172605  0.14580491    -0.39040
O2869       O  0.77614536  0.70268836  0.01506562    -0.39750
O2870       O  0.79808971  0.75540387  0.00446613    -0.39810
C2871       C  0.75038740  0.91554513  0.29041351    -0.12090
C2872       C  0.78169647  0.89616320  0.29289703     0.04910
C2873       C  0.81206696  0.91310964  0.30575412    -0.07380
C2874       C  0.80954015  0.94634247  0.32120998    -0.08120
C2875       C  0.77727934  0.96567874  0.32557739    -0.02680
C2876       C  0.74713209  0.94990513  0.30602051     0.04140
N2877       N  0.71259386  0.96569157  0.30281146     0.66650
H2878       H  0.72721746  0.90269253  0.27771739     0.15550
H2879       H  0.83496785  0.95432258  0.33094099     0.15260
N2880       N  0.84552768  0.89610819  0.30603087     0.74350
O2881       O  0.70444582  0.99321676  0.32022170    -0.39100
O2882       O  0.68993215  0.95242632  0.28091885    -0.39040
O2883       O  0.86154435  0.89013605  0.27733159    -0.39750
O2884       O  0.86154399  0.89231480  0.33490607    -0.39810
C2885       C  0.76181721  0.53662756  0.29902947    -0.12090
C2886       C  0.77434433  0.53646584  0.33446098     0.04910
C2887       C  0.78822737  0.57102117  0.34824986    -0.07380
C2888       C  0.78985525  0.60037148  0.32629251    -0.08120
C2889       C  0.77453159  0.59950318  0.29287936    -0.02680
C2890       C  0.75666023  0.56795161  0.28103494     0.04140
N2891       N  0.72902407  0.56818963  0.25480691     0.66650
H2892       H  0.75431901  0.51259986  0.28472421     0.15550
H2893       H  0.80200438  0.62528539  0.33646042     0.15260
N2894       N  0.80226666  0.57877600  0.38319166     0.74350
O2895       O  0.71711347  0.53940118  0.24042490    -0.39100
O2896       O  0.71043212  0.59513209  0.25311724    -0.39040
O2897       O  0.83323317  0.57011753  0.39089416    -0.39750
O2898       O  0.79094957  0.60568588  0.39964951    -0.39810
C2899       C  0.92052225  0.86037212  0.18102222    -0.12090
C2900       C  0.91169003  0.83044509  0.20015887     0.04910
C2901       C  0.93826420  0.81799064  0.22281565    -0.07380
C2902       C  0.97072158  0.83697343  0.22845523    -0.08120
C2903       C  0.98168193  0.86505708  0.20738758    -0.02680
C2904       C  0.95462659  0.87769258  0.18394327     0.04140
N2905       N  0.96037006  0.90790725  0.16253928     0.66650
H2906       H  0.90062047  0.87104924  0.16416564     0.15550
H2907       H  0.98898992  0.82723189  0.24738559     0.15260
N2908       N  0.93434102  0.78348250  0.23697348     0.74350
O2909       O  0.95640189  0.90434813  0.12947784    -0.39100
O2910       O  0.95973584  0.93854208  0.17667759    -0.39040
O2911       O  0.93007111  0.75731178  0.21559115    -0.39750
O2912       O  0.94400928  0.77837812  0.26827437    -0.39810
C2913       C  0.54741220  0.81629288  0.20466856    -0.12090
C2914       C  0.55252998  0.85372177  0.21009079     0.04910
C2915       C  0.58859456  0.86780823  0.20856607    -0.07380
C2916       C  0.61614052  0.84552222  0.20236746    -0.08120
C2917       C  0.61128683  0.80864072  0.20014853    -0.02680
C2918       C  0.57625989  0.79374555  0.19923528     0.04140
N2919       N  0.56897701  0.75699659  0.18978603     0.66650
H2920       H  0.52108623  0.80418097  0.20202275     0.15550
H2921       H  0.64273492  0.85774335  0.20086385     0.15260
N2922       N  0.59834126  0.90510824  0.21085603     0.74350
O2923       O  0.54324552  0.74822354  0.16940421    -0.39100
O2924       O  0.58803938  0.73319792  0.20122759    -0.39040
O2925       O  0.60071561  0.92090729  0.24069446    -0.39750
O2926       O  0.61521182  0.91859344  0.18546747    -0.39810
C2927       C  0.78953233  0.94905727  0.12886456    -0.12090
C2928       C  0.76161281  0.97330876  0.13043567     0.04910
C2929       C  0.73256061  0.96361198  0.15440739    -0.07380
C2930       C  0.73194981  0.92991338  0.17071764    -0.08120
C2931       C  0.75952778  0.90629104  0.16701363    -0.02680
C2932       C  0.78976937  0.91779834  0.14785561     0.04140
N2933       N  0.82194817  0.89857719  0.14840679     0.66650
H2934       H  0.81270866  0.95387658  0.11287231     0.15550
H2935       H  0.70911897  0.92169752  0.18625981     0.15260
N2936       N  0.70394299  0.98654851  0.16443577     0.74350
O2937       O  0.84062241  0.89540158  0.12091357    -0.39100
O2938       O  0.83426025  0.88919680  0.17751851    -0.39040
O2939       O  0.68743286  0.98159954  0.19296311    -0.39750
O2940       O  0.69381842  0.01082784  0.14533809    -0.39810
C2941       C  0.73345408  0.58126437  0.16449555    -0.12090
C2942       C  0.73188278  0.60847350  0.14014024     0.04910
C2943       C  0.74935840  0.60437216  0.10767479    -0.07380
C2944       C  0.76754273  0.57341032  0.10106642    -0.08120
C2945       C  0.76285470  0.54356581  0.12251489    -0.02680
C2946       C  0.75337269  0.55114250  0.15783960     0.04140
N2947       N  0.77511536  0.54002256  0.18642116     0.66650
H2948       H  0.72653263  0.58753688  0.19140023     0.15550
H2949       H  0.78307945  0.57154738  0.07722068     0.15260
N2950       N  0.75090189  0.63225169  0.08244280     0.74350
O2951       O  0.79419957  0.56298143  0.20359531    -0.39100
O2952       O  0.77319958  0.50876158  0.19705641    -0.39040
O2953       O  0.77161914  0.63050819  0.05631676    -0.39750
O2954       O  0.72895212  0.65666065  0.08391140    -0.39810
C2955       C  0.54962895  0.89371155  0.11442588    -0.12090
C2956       C  0.55681773  0.92981099  0.11343933     0.04910
C2957       C  0.55292525  0.95144488  0.14437495    -0.07380
C2958       C  0.54019737  0.93593737  0.17557681    -0.08120
C2959       C  0.53043000  0.89943729  0.17626455    -0.02680
C2960       C  0.53412342  0.87864282  0.14374414     0.04140
N2961       N  0.52341883  0.84167140  0.13959858     0.66650
H2962       H  0.55110872  0.87760703  0.09017649     0.15550
H2963       H  0.53900366  0.95234367  0.19937594     0.15260
N2964       N  0.56143270  0.98907948  0.14416841     0.74350
O2965       O  0.49081760  0.83260241  0.13760108    -0.39100
O2966       O  0.54551437  0.82032444  0.12711516    -0.39040
O2967       O  0.55307421  0.00906725  0.16994086    -0.39750
O2968       O  0.57966232  0.00221591  0.11951864    -0.39810
C2969       C  0.50374691  0.93251680  0.25485063    -0.12090
C2970       C  0.52420686  0.90221507  0.24853722     0.04910
C2971       C  0.54408407  0.89160937  0.27894906    -0.07380
C2972       C  0.54720412  0.91351131  0.30976331    -0.08120
C2973       C  0.52789708  0.94399242  0.31511494    -0.02680
C2974       C  0.50399469  0.95259745  0.28766558     0.04140
N2975       N  0.97829121  0.97973527  0.29289910     0.66650
H2976       H  0.98609782  0.93989736  0.23428346     0.15550
H2977       H  0.56307560  0.90468863  0.33148890     0.15260
N2978       N  0.56028499  0.85798464  0.28088236     0.74350
O2979       O  0.97360629  0.99422103  0.32293477    -0.39100
O2980       O  0.95753184  0.98694096  0.26814241    -0.39040
O2981       O  0.59303483  0.85727919  0.28813620    -0.39750
O2982       O  0.54086122  0.83051457  0.28565135    -0.39810
C2983       C  0.69578620  0.51735341  0.41785938    -0.12090
C2984       C  0.67401928  0.98673105  0.41296414     0.04910
C2985       C  0.68880681  0.95695572  0.39568659    -0.07380
C2986       C  0.72391344  0.96034856  0.38174881    -0.08120
C2987       C  0.74391722  0.99343799  0.38099870    -0.02680
C2988       C  0.73105205  0.52000146  0.40510556     0.04140
N2989       N  0.75447355  0.54497921  0.42369182     0.66650
H2990       H  0.68583138  0.53877048  0.43434486     0.15550
H2991       H  0.73481909  0.93687271  0.36981863     0.15260
N2992       N  0.66835179  0.92397328  0.39000928     0.74350
O2993       O  0.74218486  0.57306341  0.43702956    -0.39100
O2994       O  0.78296082  0.53425810  0.43631320    -0.39040
O2995       O  0.63477671  0.92321590  0.39030624    -0.39750
O2996       O  0.68365562  0.89597032  0.38096980    -0.39810
C2997       C  0.87780719  0.99793034  0.36501256    -0.12090
C2998       C  0.88016964  0.97207219  0.39034683     0.04910
C2999       C  0.84909922  0.95810784  0.40621489    -0.07380
C3000       C  0.81634145  0.97220594  0.39764953    -0.08120
C3001       C  0.81304088  0.99851620  0.37208112    -0.02680
C3002       C  0.84534908  0.01058324  0.35464556     0.04140
N3003       N  0.84545759  0.52841438  0.32163006     0.66650
H3004       H  0.90192656  0.00827066  0.35267912     0.15550
H3005       H  0.79276728  0.96014106  0.40913576     0.15260
N3006       N  0.85001144  0.92976312  0.43088402     0.74350
O3007       O  0.86115021  0.55844309  0.31961167    -0.39100
O3008       O  0.83824129  0.51099243  0.29328974    -0.39040
O3009       O  0.87729997  0.92512655  0.44933427    -0.39750
O3010       O  0.82298510  0.90924407  0.43466111    -0.39810
C3011       C  0.72421304  0.53153464  0.05445584    -0.12090
C3012       C  0.73018320  0.50404739  0.07826487     0.04910
C3013       C  0.70127997  0.97930861  0.08121610    -0.07380
C3014       C  0.66670532  0.99111427  0.07676076    -0.08120
C3015       C  0.66014795  0.52313834  0.05982689    -0.02680
C3016       C  0.68982641  0.54221559  0.04593729     0.04140
N3017       N  0.68618737  0.57109681  0.02220163     0.66650
H3018       H  0.74646079  0.54510645  0.04227238     0.15550
H3019       H  0.64448009  0.97285436  0.08214323     0.15260
N3020       N  0.70653504  0.94205674  0.08491065     0.74350
O3021       O  0.71178185  0.59327859  0.01807861    -0.39100
O3022       O  0.65869461  0.57350720  0.50341772    -0.39040
O3023       O  0.68201135  0.92199105  0.09683963    -0.39750
O3024       O  0.73348985  0.92825587  0.07129086    -0.39810
C3025       C  0.80012318  0.49702551  0.04603585    -0.12090
C3026       C  0.79957148  0.50672667  0.08239754     0.04910
C3027       C  0.83254019  0.52013810  0.09761272    -0.07380
C3028       C  0.86295607  0.52458332  0.07667902    -0.08120
C3029       C  0.86310331  0.51526494  0.04065399    -0.02680
C3030       C  0.83086181  0.50190160  0.02496895     0.04140
N3031       N  0.82847851  0.49296843  0.48792774     0.66650
H3032       H  0.77622694  0.48579598  0.03344736     0.15550
H3033       H  0.88745992  0.53455597  0.08914137     0.15260
N3034       N  0.83606739  0.52963758  0.13440284     0.74350
O3035       O  0.80372971  0.97198048  0.47648684    -0.39100
O3036       O  0.84648354  0.51077449  0.46619686    -0.39040
O3037       O  0.83987761  0.00555649  0.15620553    -0.39750
O3038       O  0.84556573  0.56116199  0.14339591    -0.39810
C3039       C  0.94683089  0.71490014  0.50312920    -0.12090
C3040       C  0.91306241  0.71192226  0.48500570     0.04910
C3041       C  0.90115172  0.67650807  0.97558526    -0.07380
C3042       C  0.92125688  0.64794654  0.48313286    -0.08120
C3043       C  0.95527616  0.65101048  0.49864796    -0.02680
C3044       C  0.96735706  0.68514314  0.51072710     0.04140
N3045       N  0.49872341  0.69008646  0.53236731     0.66650
H3046       H  0.95682268  0.74009784  0.51406936     0.15550
H3047       H  0.90923534  0.62215700  0.97560506     0.15260
N3048       N  0.86796227  0.66746713  0.95861063     0.74350
O3049       O  0.51789707  0.71824424  0.53075625    -0.39100
O3050       O  0.50347314  0.66974223  0.05760156    -0.39040
O3051       O  0.86767794  0.66255756  0.42553529    -0.39750
O3052       O  0.84372361  0.65225457  0.97629738    -0.39810
C3053       C  0.90142206  0.84550382  0.01133200    -0.12090
C3054       C  0.93399159  0.85358900  0.99520998     0.04910
C3055       C  0.94959651  0.82555684  0.47507575    -0.07380
C3056       C  0.93592387  0.79061391  0.47721542    -0.08120
C3057       C  0.90193617  0.78215353  0.49037078    -0.02680
C3058       C  0.88420953  0.81145606  0.00679740     0.04140
N3059       N  0.84790191  0.80851542  0.01721232     0.66650
H3060       H  0.88741955  0.86666906  0.02452795     0.15550
H3061       H  0.95128939  0.77029040  0.46495591     0.15260
N3062       N  0.47621081  0.83166833  0.44849156     0.74350
O3063       O  0.84080593  0.80524890  0.04952193    -0.39100
O3064       O  0.82512554  0.82172658  0.99760018    -0.39040
O3065       O  0.50058736  0.80989179  0.94486581    -0.39750
O3066       O  0.46760610  0.84802800  0.42145958    -0.39810
C3067       C  0.63346568  0.65491325  0.45204779    -0.12090
C3068       C  0.59701119  0.64779122  0.45035978     0.04910
C3069       C  0.57419937  0.67663286  0.45387800    -0.07380
C3070       C  0.58892308  0.71127282  0.46158062    -0.08120
C3071       C  0.62610785  0.71943353  0.46236396    -0.02680
C3072       C  0.64791144  0.68968181  0.45683699     0.04140
N3073       N  0.68528481  0.69391266  0.45337268     0.66650
H3074       H  0.65124430  0.63306022  0.44986836     0.15550
H3075       H  0.57049379  0.73199013  0.46250227     0.15260
N3076       N  0.53630038  0.67174347  0.44768854     0.74350
O3077       O  0.70454761  0.68559546  0.47887095    -0.39100
O3078       O  0.69745809  0.69120414  0.42251551    -0.39040
O3079       O  0.51642789  0.69773487  0.95095712    -0.39750
O3080       O  0.52338889  0.64329937  0.43345263    -0.39810
C3081       C  0.60636506  0.84758621  0.44802702    -0.12090
C3082       C  0.57236333  0.84693558  0.46243371     0.04910
C3083       C  0.56336870  0.82015075  0.48707551    -0.07380
C3084       C  0.58555344  0.79076879  0.48897748    -0.08120
C3085       C  0.61920530  0.79131751  0.47237586    -0.02680
C3086       C  0.63110099  0.82538933  0.46117462     0.04140
N3087       N  0.66510063  0.84121892  0.47163987     0.66650
H3088       H  0.61601861  0.87104560  0.43464318     0.15550
H3089       H  0.57740790  0.76923783  0.50548684     0.15260
N3090       N  0.53385637  0.82294597  0.51122016     0.74350
O3091       O  0.67965631  0.86520245  0.45346007    -0.39100
O3092       O  0.67642940  0.83730064  0.50257155    -0.39040
O3093       O  0.52091350  0.85254602  0.51871849    -0.39750
O3094       O  0.52284232  0.79627882  0.02792641    -0.39810
C3095       C  0.98238828  0.57007454  0.19734922    -0.12090
C3096       C  0.50509179  0.60083859  0.20322809     0.04910
C3097       C  0.52285340  0.61365918  0.17276366    -0.07380
C3098       C  0.52156570  0.59398212  0.14072137    -0.08120
C3099       C  0.50050570  0.56228644  0.13506594    -0.02680
C3100       C  0.97919174  0.55119659  0.16409501     0.04140
N3101       N  0.95292766  0.52243368  0.16067823     0.66650
H3102       H  0.96557873  0.56115448  0.21863474     0.15550
H3103       H  0.53681547  0.60524890  0.11933233     0.15260
N3104       N  0.54019966  0.64815667  0.17248611     0.74350
O3105       O  0.94283912  0.50640160  0.18783205    -0.39100
O3106       O  0.93384231  0.51890299  0.13328820    -0.39040
O3107       O  0.57300646  0.65078809  0.16561723    -0.39750
O3108       O  0.52151422  0.67449857  0.16754720    -0.39810
C3109       C  0.96283545  0.59486823  0.28712317    -0.12090
C3110       C  0.49667787  0.59464523  0.27019881     0.04910
C3111       C  0.52148706  0.57256814  0.28561394    -0.07380
C3112       C  0.51774063  0.56456596  0.32100611    -0.08120
C3113       C  0.48826843  0.57466418  0.34122438    -0.02680
C3114       C  0.95895061  0.58801247  0.32333755     0.04140
N3115       N  0.92722453  0.59882090  0.34125729     0.66650
H3116       H  0.94014206  0.60464872  0.27347064     0.15550
H3117       H  0.53820645  0.54943699  0.33278845     0.15260
N3118       N  0.54697912  0.55346130  0.26540804     0.74350
O3119       O  0.91052732  0.62462711  0.33027163    -0.39100
O3120       O  0.91343030  0.58067626  0.36535960    -0.39040
O3121       O  0.57692841  0.54770928  0.27872000    -0.39750
O3122       O  0.53690932  0.53570350  0.23811917    -0.39810
C3123       C  0.93492454  0.69015069  0.27348775    -0.12090
C3124       C  0.91307754  0.68969725  0.24368204     0.04910
C3125       C  0.92438315  0.67184787  0.21259581    -0.07380
C3126       C  0.95613356  0.65472147  0.21204875    -0.08120
C3127       C  0.97717501  0.65088076  0.24241942    -0.02680
C3128       C  0.96623840  0.67037275  0.27441186     0.04140
N3129       N  0.98418867  0.66928303  0.30850134     0.66650
H3130       H  0.92596695  0.70414078  0.29703886     0.15550
H3131       H  0.96206630  0.64213200  0.18698034     0.15260
N3132       N  0.90308476  0.66869459  0.18109094     0.74350
O3133       O  0.97099181  0.68416569  0.33552232    -0.39100
O3134       O  0.01305743  0.65413429  0.31243361    -0.39040
O3135       O  0.91591995  0.68084429  0.15304893    -0.39750
O3136       O  0.87958748  0.64382450  0.17844742    -0.39810
C3137       C  0.57487492  0.61801881  0.23763615    -0.12090
C3138       C  0.54577624  0.63934891  0.24636529     0.04910
C3139       C  0.55571106  0.67565107  0.25703231    -0.07380
C3140       C  0.59164917  0.68576957  0.26417692    -0.08120
C3141       C  0.61945152  0.66370348  0.25568074    -0.02680
C3142       C  0.61072860  0.62964252  0.24101905     0.04140
N3143       N  0.63752016  0.60730499  0.22659864     0.66650
H3144       H  0.57005463  0.59309842  0.22345437     0.15550
H3145       H  0.59829660  0.71314605  0.27216471     0.15260
N3146       N  0.53148522  0.70406647  0.25800686     0.74350
O3147       O  0.63464143  0.57416334  0.23013755    -0.39100
O3148       O  0.65989309  0.61942347  0.20486972    -0.39040
O3149       O  0.53263588  0.72619883  0.28382677    -0.39750
O3150       O  0.51672843  0.71274892  0.22984913    -0.39810
C3151       C  0.00648645  0.62194812  0.74049872    -0.02310
O3152       O  0.96473947  0.55881897  0.89869521    -0.86310
O3153       O  0.62712770  0.96956771  0.95374052    -0.86480
O3154       O  0.58154214  0.58744598  0.92888148    -0.88150
O3155       O  0.54366155  0.98924506  0.86162508    -0.86900
O3156       O  0.51029078  0.93871503  0.87440628    -0.86490
O3157       O  0.57328937  0.60544047  0.98698888    -0.87870
O3158       O  0.61640597  0.00952089  0.91101292    -0.86340
O3159       O  0.52347637  0.57116530  0.89114201    -0.85930
Zr3160     Zr  0.55476207  0.52563300  0.91857183     2.84310
O3161       O  0.55350517  0.96610370  0.93540110    -1.07910
O3162       O  0.52009134  0.55756403  0.95886065    -1.08640
C3163       C  0.49149695  0.56901126  0.87966077     1.06790
C3164       C  0.63661596  0.98802096  0.92661361     1.06740
C3165       C  0.58344104  0.61079784  0.95524825     1.09720
C3166       C  0.52715879  0.95891974  0.85265689     1.07500
H3167       H  0.60116509  0.53490515  0.97612732     0.33060
O3168       O  0.57698027  0.52529990  0.97627701    -1.28860
H3169       H  0.98607648  0.00064277  0.89557476     0.32730
O3170       O  0.49628387  0.00116608  0.91896072    -1.30540
O3171       O  0.57284400  0.94648680  0.55494212    -0.86310
O3172       O  0.90796982  0.53006765  0.99651631    -0.87800
O3173       O  0.60267482  0.54876490  0.54454716    -0.86380
O3174       O  0.53009577  0.88911868  0.94364824    -0.86430
O3175       O  0.93607101  0.94941897  0.90824150    -0.86150
O3176       O  0.50416078  0.61164212  0.51546375    -0.85950
O3177       O  0.98537972  0.51442868  0.58927274    -0.86320
O3178       O  0.95369388  0.91250967  0.52181201    -0.85790
O3179       O  0.52315626  0.56138150  0.57697846    -0.86850
O3180       O  0.95602263  0.89993838  0.96226238    -0.86010
O3181       O  0.62010979  0.99402745  0.52491532    -0.86410
O3182       O  0.96115649  0.59446987  0.97550264    -0.86130
O3183       O  0.91704427  0.00415456  0.92617025    -0.85780
O3184       O  0.57561872  0.90464213  0.98222947    -0.86190
O3185       O  0.51579853  0.94993873  0.57611299    -0.86480
O3186       O  0.91931971  0.99117188  0.53986656    -0.87820
Zr3187     Zr  0.57402847  0.96648533  0.99337252     2.83100
Zr3188     Zr  0.96201757  0.53431818  0.95840932     2.83500
Zr3189     Zr  0.54255966  0.55841195  0.51641800     2.84090
Zr3190     Zr  0.49468372  0.94281141  0.93662260     2.83360
Zr3191     Zr  0.98047192  0.97559858  0.53327917     2.84220
O3192       O  0.95922529  0.97586941  0.97543443    -1.08390
O3193       O  0.53926518  0.99941656  0.53215406    -1.07890
C3194       C  0.54875421  0.94367555  0.57924893     1.06770
C3195       C  0.89879407  0.51192209  0.52390438     1.09380
C3196       C  0.62498054  0.52299744  0.54250874     1.06940
C3197       C  0.55726462  0.88207173  0.96306048     1.07300
C3198       C  0.91339454  0.97438416  0.90954295     1.06880
C3199       C  0.97574509  0.61736883  0.99711192     1.06440
C3200       C  0.50261311  0.54427859  0.59826833     1.06860
C3201       C  0.94836634  0.89142049  0.49367280     1.06370
H3202       H  0.96864033  0.54905796  0.53114755     0.33050
O3203       O  0.98336929  0.53475278  0.51601355    -1.29490
H3204       H  0.51618777  0.91905195  0.50367461     0.33070
O3205       O  0.51603315  0.94259671  0.99474315    -1.30870
C3206       C  0.76365756  0.50589785  0.60407801    -0.02310
O3207       O  0.67772908  0.68615940  0.77602708    -0.86310
O3208       O  0.74820422  0.77774942  0.61357720    -0.86480
O3209       O  0.65140386  0.76048459  0.68715726    -0.88150
O3210       O  0.70945786  0.66480294  0.65898273    -0.86900
O3211       O  0.76664817  0.64906899  0.66979708    -0.86490
O3212       O  0.66644796  0.80657689  0.72547149    -0.87870
O3213       O  0.70125572  0.73955332  0.62647946    -0.86340
O3214       O  0.65943719  0.69166495  0.71849394    -0.85930
Zr3215     Zr  0.70468324  0.72420821  0.68721360     2.84310
O3216       O  0.76380064  0.72568241  0.66819182    -1.07910
O3217       O  0.70358703  0.74807410  0.74475057    -1.08640
C3218       C  0.65492662  0.68118542  0.75013301     1.06790
C3219       C  0.71827327  0.76025099  0.60557632     1.06740
C3220       C  0.64462267  0.78960117  0.70444131     1.09720
C3221       C  0.73550208  0.64350281  0.65687939     1.07500
H3222       H  0.71419750  0.79700853  0.67056869     0.33060
O3223       O  0.72830215  0.78281284  0.68552170    -1.28860
H3224       H  0.72759647  0.66675630  0.72629500     0.32730
O3225       O  0.73752040  0.69075615  0.72584998    -1.30540
O3226       O  0.85141092  0.81169241  0.67665380    -0.86310
O3227       O  0.78111589  0.72390494  0.83482116    -0.87800
O3228       O  0.73734030  0.86093929  0.70784178    -0.86380
O3229       O  0.82866061  0.69429882  0.64984901    -0.86430
O3230       O  0.78792939  0.63997811  0.74584818    -0.86150
O3231       O  0.69463023  0.80375158  0.79942342    -0.85950
O3232       O  0.80783440  0.83929121  0.77818223    -0.86320
O3233       O  0.87151607  0.73586163  0.75920641    -0.85790
O3234       O  0.74863209  0.84471823  0.78601363    -0.86850
O3235       O  0.85378621  0.68482103  0.72859476    -0.86010
O3236       O  0.77441283  0.84599372  0.66232744    -0.86410
O3237       O  0.70362291  0.74929523  0.82263583    -0.86130
O3238       O  0.75314693  0.65627445  0.79287820    -0.85780
O3239       O  0.82283201  0.75005770  0.62821089    -0.86190
O3240       O  0.86678573  0.80726721  0.73500422    -0.86480
O3241       O  0.82529522  0.76546405  0.82371974    -0.87820
Zr3242     Zr  0.78819102  0.78431905  0.66729394     2.83100
Zr3243     Zr  0.73824785  0.71596657  0.78307510     2.83500
Zr3244     Zr  0.72663470  0.80586028  0.74288728     2.84090
Zr3245     Zr  0.79604313  0.69191759  0.70662942     2.83360
Zr3246     Zr  0.81947244  0.77551917  0.76212975     2.84220
O3247       O  0.79683805  0.71677509  0.76360240    -1.08390
O3248       O  0.78587931  0.80877358  0.72433652    -1.07890
C3249       C  0.87391259  0.81583173  0.70334822     1.06770
C3250       C  0.80930688  0.74363539  0.84422533     1.09380
C3251       C  0.75651798  0.86877332  0.68022962     1.06940
C3252       C  0.83411336  0.71850963  0.62668685     1.07300
C3253       C  0.77165666  0.63390631  0.77552960     1.06880
C3254       C  0.69151869  0.78043892  0.82363876     1.06440
C3255       C  0.77997398  0.85771219  0.78535265     1.06860
C3256       C  0.87719209  0.70471111  0.74476822     1.06370
H3257       H  0.76095740  0.78484834  0.80543395     0.33050
O3258       O  0.76103056  0.77429576  0.78185992    -1.29490
H3259       H  0.84465578  0.74852410  0.69713385     0.33070
O3260       O  0.82045511  0.74978009  0.70527809    -1.30870
C3261       C  0.64358715  0.75875628  0.96535638    -0.02310
C3262       C  0.52148245  0.88037973  0.71126730    -0.02310
C3263       C  0.88530493  0.74257029  0.98617600    -0.02310
C3264       C  0.77642487  0.99929539  0.85342797    -0.02310
C3265       C  0.68679683  0.78800614  0.91942622    -0.12090
C3266       C  0.65655214  0.76600692  0.92635703     0.04910
C3267       C  0.63258286  0.76044205  0.89656666    -0.07380
C3268       C  0.64247296  0.77077658  0.86284333    -0.08120
C3269       C  0.67472214  0.78858198  0.85697263    -0.02680
C3270       C  0.69665170  0.79859396  0.88575487     0.04140
N3271       N  0.72953936  0.81883138  0.88112196     0.66650
H3272       H  0.70078759  0.80174856  0.93994532     0.15550
H3273       H  0.62530400  0.76321484  0.84051861     0.15260
N3274       N  0.59672880  0.74701324  0.89949931     0.74210
O3275       O  0.75527815  0.81583770  0.90211535    -0.39100
O3276       O  0.73225743  0.84144688  0.85742322    -0.39040
O3277       O  0.57296419  0.76852534  0.90734326    -0.39750
O3278       O  0.58767810  0.71824965  0.88322237    -0.39810
C3279       C  0.72091504  0.76990715  0.54008320    -0.12090
C3280       C  0.70082268  0.76294551  0.56999594     0.04910
C3281       C  0.66412785  0.75441232  0.56499468    -0.07380
C3282       C  0.64947121  0.75137869  0.53095263    -0.08120
C3283       C  0.66858790  0.75907846  0.49978022    -0.02680
C3284       C  0.70620988  0.76743443  0.50553033     0.04140
N3285       N  0.73142186  0.77252678  0.97816095     0.66650
H3286       H  0.74905637  0.77618513  0.54353571     0.15550
H3287       H  0.62163784  0.74347736  0.52922759     0.15260
N3288       N  0.64044003  0.75078072  0.59437752     0.74350
O3289       O  0.75130112  0.80040122  0.97872421    -0.39100
O3290       O  0.73924524  0.74675794  0.95826584    -0.39040
O3291       O  0.63803065  0.77630385  0.61653214    -0.39750
O3292       O  0.61761895  0.72527105  0.59470642    -0.39810
C3293       C  0.86194049  0.75418052  0.88467916    -0.12090
C3294       C  0.82638680  0.74187412  0.88051002     0.04910
C3295       C  0.81048546  0.72622059  0.90996727    -0.07380
C3296       C  0.82911236  0.72621412  0.94267568    -0.08120
C3297       C  0.86419182  0.74099877  0.94859198    -0.02680
C3298       C  0.88130204  0.75140319  0.91635247     0.04140
N3299       N  0.91911873  0.75364616  0.91259611     0.66650
H3300       H  0.87644111  0.76313591  0.86173852     0.15550
H3301       H  0.81747279  0.70898029  0.96104760     0.15260
N3302       N  0.77619596  0.70844329  0.90689561     0.74350
O3303       O  0.93622574  0.72574336  0.91474195    -0.39100
O3304       O  0.93336128  0.77953501  0.89684472    -0.39040
O3305       O  0.77030567  0.67912582  0.92133070    -0.39750
O3306       O  0.75069764  0.72386911  0.89324048    -0.39810
C3307       C  0.89168911  0.74173859  0.55294388    -0.12090
C3308       C  0.86816784  0.73464215  0.52371539     0.04910
C3309       C  0.83487345  0.71719659  0.53234767    -0.07380
C3310       C  0.83054650  0.70169389  0.56542441    -0.08120
C3311       C  0.85303647  0.71137302  0.59381420    -0.02680
C3312       C  0.88453036  0.73149972  0.58730208     0.04140
N3313       N  0.90861562  0.74404953  0.61524355     0.66650
H3314       H  0.91575110  0.75775276  0.54965404     0.15550
H3315       H  0.80466611  0.68992159  0.57169707     0.15260
N3316       N  0.80230631  0.72482541  0.51538633     0.74350
O3317       O  0.94128664  0.74948268  0.60881601    -0.39100
O3318       O  0.89744561  0.75172986  0.64581347    -0.39040
O3319       O  0.77612369  0.70269853  0.51509484    -0.39750
O3320       O  0.79806245  0.75541502  0.50449068    -0.39810
C3321       C  0.75038692  0.91554149  0.79042026    -0.12090
C3322       C  0.78169772  0.89616199  0.79290176     0.04910
C3323       C  0.81206989  0.91311274  0.80574990    -0.07380
C3324       C  0.80954421  0.94634864  0.82119909    -0.08120
C3325       C  0.77728161  0.96568020  0.82557409    -0.02680
C3326       C  0.74713250  0.94990343  0.80602267     0.04140
N3327       N  0.71259396  0.96568920  0.80281424     0.66650
H3328       H  0.72721554  0.90268607  0.77772938     0.15550
H3329       H  0.83497431  0.95433509  0.83091915     0.15260
N3330       N  0.84553173  0.89611343  0.80602428     0.74350
O3331       O  0.70444677  0.99321586  0.82022256    -0.39100
O3332       O  0.68993147  0.95242229  0.78092331    -0.39040
O3333       O  0.86154547  0.89013972  0.77732365    -0.39750
O3334       O  0.86155173  0.89232385  0.83489817    -0.39810
C3335       C  0.76183141  0.53662791  0.79903409    -0.12090
C3336       C  0.77436008  0.53646401  0.83446505     0.04910
C3337       C  0.78824132  0.57101901  0.84825593    -0.07380
C3338       C  0.78986543  0.60037174  0.82630094    -0.08120
C3339       C  0.77454029  0.59950496  0.79288812    -0.02680
C3340       C  0.75667083  0.56795289  0.78104238     0.04140
N3341       N  0.72903321  0.56819056  0.75481571     0.66650
H3342       H  0.75433406  0.51260098  0.78472713     0.15550
H3343       H  0.80201301  0.62528577  0.83647025     0.15260
N3344       N  0.80228125  0.57877114  0.88319790     0.74350
O3345       O  0.71712324  0.53940202  0.74043335    -0.39100
O3346       O  0.71043967  0.59513211  0.75312800    -0.39040
O3347       O  0.83324741  0.57011117  0.89089973    -0.39750
O3348       O  0.79096416  0.60567929  0.89965854    -0.39810
C3349       C  0.92052093  0.86037104  0.68102018    -0.12090
C3350       C  0.91168892  0.83044450  0.70015759     0.04910
C3351       C  0.93826355  0.81799030  0.72281411    -0.07380
C3352       C  0.97072110  0.83697290  0.72845264    -0.08120
C3353       C  0.98168096  0.86505640  0.70738469    -0.02680
C3354       C  0.95462527  0.87769155  0.68394062     0.04140
N3355       N  0.96036796  0.90790677  0.66253728     0.66650
H3356       H  0.90061880  0.87104811  0.66416397     0.15550
H3357       H  0.98898968  0.82723166  0.74738290     0.15260
N3358       N  0.93434042  0.78348277  0.73697329     0.74350
O3359       O  0.95639944  0.90434836  0.62947583    -0.39100
O3360       O  0.95973340  0.93854123  0.67667640    -0.39040
O3361       O  0.93007141  0.75731125  0.71559186    -0.39750
O3362       O  0.94400842  0.77837974  0.76827454    -0.39810
C3363       C  0.54741239  0.81629393  0.70466703    -0.12090
C3364       C  0.55252920  0.85372292  0.71008755     0.04910
C3365       C  0.58859351  0.86781037  0.70856422    -0.07380
C3366       C  0.61614057  0.84552477  0.70237042    -0.08120
C3367       C  0.61128752  0.80864327  0.70015421    -0.02680
C3368       C  0.57626102  0.79374713  0.69923864     0.04140
N3369       N  0.56897990  0.75699699  0.68979370     0.66650
H3370       H  0.52108678  0.80418132  0.70202022     0.15550
H3371       H  0.64273489  0.85774636  0.70086828     0.15260
N3372       N  0.59833910  0.90511061  0.71085275     0.74350
O3373       O  0.54325038  0.74822053  0.66941064    -0.39100
O3374       O  0.58804018  0.73320034  0.70124279    -0.39040
O3375       O  0.60071159  0.92091118  0.74069055    -0.39750
O3376       O  0.61521023  0.91859506  0.68546416    -0.39810
C3377       C  0.78953052  0.94905825  0.62886647    -0.12090
C3378       C  0.76161101  0.97330980  0.63043735     0.04910
C3379       C  0.73255914  0.96361359  0.65440975    -0.07380
C3380       C  0.73194903  0.92991572  0.67072147    -0.08120
C3381       C  0.75952726  0.90629362  0.66701825    -0.02680
C3382       C  0.78976828  0.91780022  0.64785899     0.04140
N3383       N  0.82194716  0.89857916  0.64841017     0.66650
H3384       H  0.81270640  0.95387703  0.61287341     0.15550
H3385       H  0.70911846  0.92170015  0.68626416     0.15260
N3386       N  0.70394115  0.98654996  0.66443743     0.74350
O3387       O  0.84062095  0.89540286  0.62091672    -0.39100
O3388       O  0.83425961  0.88919922  0.67752190    -0.39040
O3389       O  0.68743058  0.98160117  0.69296454    -0.39750
O3390       O  0.69381651  0.01082884  0.64533923    -0.39810
C3391       C  0.73344234  0.58126623  0.66450068    -0.12090
C3392       C  0.73187119  0.60847685  0.64014717     0.04910
C3393       C  0.74934263  0.60437614  0.60767969    -0.07380
C3394       C  0.76752432  0.57341361  0.60106801    -0.08120
C3395       C  0.76283620  0.54356791  0.62251512    -0.02680
C3396       C  0.75335879  0.55114355  0.65784141     0.04140
N3397       N  0.77510425  0.54002225  0.68642048     0.66650
H3398       H  0.72652303  0.58753761  0.69140625     0.15550
H3399       H  0.78305854  0.57155136  0.57722067     0.15260
N3400       N  0.75088438  0.63225661  0.58244863     0.74350
O3401       O  0.79418263  0.56298153  0.70360049    -0.39100
O3402       O  0.77320445  0.50875584  0.69704191    -0.39040
O3403       O  0.77159849  0.63051309  0.55632013    -0.39750
O3404       O  0.72893587  0.65666660  0.58392073    -0.39810
C3405       C  0.54962409  0.89371437  0.61442234    -0.12090
C3406       C  0.55681238  0.92981397  0.61343661     0.04910
C3407       C  0.55292111  0.95144697  0.64437300    -0.07380
C3408       C  0.54019448  0.93593853  0.67557488    -0.08120
C3409       C  0.53042814  0.89943820  0.67626208    -0.02680
C3410       C  0.53412128  0.87864440  0.64374128     0.04140
N3411       N  0.52341894  0.84167246  0.63959604     0.66650
H3412       H  0.55110306  0.87761045  0.59017250     0.15550
H3413       H  0.53900107  0.95234422  0.69937445     0.15260
N3414       N  0.56142875  0.98908156  0.64416730     0.74350
O3415       O  0.49081817  0.83260160  0.63759789    -0.39100
O3416       O  0.54551615  0.82032664  0.62711376    -0.39040
O3417       O  0.55307113  0.00906865  0.66994057    -0.39750
O3418       O  0.57965819  0.00221851  0.61951767    -0.39810
C3419       C  0.50374582  0.93251472  0.75484986    -0.12090
C3420       C  0.52420567  0.90221323  0.74853503     0.04910
C3421       C  0.54408292  0.89160573  0.77894628    -0.07380
C3422       C  0.54720296  0.91350584  0.80976142    -0.08120
C3423       C  0.52789582  0.94398637  0.81511461    -0.02680
C3424       C  0.50399362  0.95259341  0.78766587     0.04140
N3425       N  0.97829056  0.97973137  0.79290099     0.66650
H3426       H  0.98609684  0.93989654  0.73428304     0.15550
H3427       H  0.56307458  0.90468205  0.83148643     0.15260
N3428       N  0.56028382  0.85798086  0.78087831     0.74350
O3429       O  0.97360453  0.99421414  0.82293785    -0.39100
O3430       O  0.95753247  0.98693998  0.76814426    -0.39040
O3431       O  0.59303396  0.85727536  0.78813080    -0.39750
O3432       O  0.54086020  0.83051102  0.78564883    -0.39810
C3433       C  0.69580344  0.51733823  0.91786452    -0.12090
C3434       C  0.67402281  0.98672659  0.91296422     0.04910
C3435       C  0.68881235  0.95695135  0.89568869    -0.07380
C3436       C  0.72391834  0.96034580  0.88174945    -0.08120
C3437       C  0.74392021  0.99343631  0.88099763    -0.02680
C3438       C  0.73106871  0.51999045  0.90510951     0.04140
N3439       N  0.75448933  0.54496839  0.92369659     0.66650
H3440       H  0.68584725  0.53875335  0.93435158     0.15550
H3441       H  0.73482532  0.93687009  0.86982030     0.15260
N3442       N  0.66835994  0.92396690  0.89001558     0.74350
O3443       O  0.74219936  0.57305138  0.93703567    -0.39100
O3444       O  0.78297720  0.53424778  0.93631735    -0.39040
O3445       O  0.63478475  0.92320775  0.89030724    -0.39750
O3446       O  0.68366681  0.89596290  0.88098599    -0.39810
C3447       C  0.87781054  0.99792813  0.86501487    -0.12090
C3448       C  0.88017217  0.97206543  0.89034501     0.04910
C3449       C  0.84910080  0.95809960  0.90621030    -0.07380
C3450       C  0.81634346  0.97219878  0.89764495    -0.08120
C3451       C  0.81304380  0.99851305  0.87208042    -0.02680
C3452       C  0.84535296  0.01058377  0.85464913     0.04140
N3453       N  0.84547618  0.52841675  0.82163819     0.66650
H3454       H  0.90193047  0.00827081  0.85268421     0.15550
H3455       H  0.79276891  0.96013294  0.90912946     0.15260
N3456       N  0.85001160  0.92975337  0.93087790     0.74350
O3457       O  0.86117136  0.55844482  0.81962567    -0.39100
O3458       O  0.83825750  0.51100146  0.79329456    -0.39040
O3459       O  0.87729993  0.92511423  0.94932755    -0.39750
O3460       O  0.82298392  0.90923609  0.93465490    -0.39810
C3461       C  0.72419083  0.53154535  0.55445536    -0.12090
C3462       C  0.73015702  0.50405718  0.57826469     0.04910
C3463       C  0.70127744  0.97931114  0.58121729    -0.07380
C3464       C  0.66670319  0.99111787  0.57676091    -0.08120
C3465       C  0.66012397  0.52316661  0.55983352    -0.02680
C3466       C  0.68980621  0.54223561  0.54593975     0.04140
N3467       N  0.68617313  0.57111865  0.52220425     0.66650
H3468       H  0.74644099  0.54511164  0.54227041     0.15550
H3469       H  0.64447729  0.97285877  0.58214333     0.15260
N3470       N  0.70653109  0.94205925  0.58491354     0.74350
O3471       O  0.71178163  0.59327920  0.51805956    -0.39100
O3472       O  0.65872471  0.57345614  0.00338572    -0.39040
O3473       O  0.68200666  0.92199503  0.59684339    -0.39750
O3474       O  0.73348539  0.92825676  0.57129445    -0.39810
C3475       C  0.80009903  0.49703691  0.54602988    -0.12090
C3476       C  0.79954799  0.50673185  0.58239278     0.04910
C3477       C  0.83251781  0.52013847  0.59760946    -0.07380
C3478       C  0.86293337  0.52458741  0.57667610    -0.08120
C3479       C  0.86308032  0.51527616  0.54064952    -0.02680
C3480       C  0.83083812  0.50191526  0.52496339     0.04140
N3481       N  0.82850239  0.49295132  0.98793374     0.66650
H3482       H  0.77620202  0.48580999  0.53344066     0.15550
H3483       H  0.88743765  0.53455646  0.58914021     0.15260
N3484       N  0.83604681  0.52962854  0.63440135     0.74350
O3485       O  0.80373176  0.97197326  0.97648578    -0.39100
O3486       O  0.84650462  0.51075794  0.96620116    -0.39040
O3487       O  0.83987524  0.00555636  0.65620691    -0.39750
O3488       O  0.84554221  0.56115188  0.64340150    -0.39810
C3489       C  0.94685917  0.71488960  0.00312228    -0.12090
C3490       C  0.91309865  0.71191757  0.98498221     0.04910
C3491       C  0.90109530  0.67650776  0.47565208    -0.07380
C3492       C  0.92132167  0.64794775  0.98304345    -0.08120
C3493       C  0.95532177  0.65100328  0.99860346    -0.02680
C3494       C  0.96738467  0.68513046  0.01071674     0.04140
N3495       N  0.49873174  0.69006498  0.03238552     0.66650
H3496       H  0.95684458  0.74008378  0.01407662     0.15550
H3497       H  0.90916099  0.62214910  0.47573435     0.15260
N3498       N  0.86789724  0.66746703  0.45869353     0.74350
O3499       O  0.51791087  0.71822135  0.03079724    -0.39100
O3500       O  0.50349071  0.66977137  0.55758411    -0.39040
O3501       O  0.86775484  0.66258420  0.92544939    -0.39750
O3502       O  0.84365603  0.65228201  0.47639898    -0.39810
C3503       C  0.90140557  0.84551866  0.51132264    -0.12090
C3504       C  0.93397940  0.85359838  0.49520622     0.04910
C3505       C  0.94961073  0.82555096  0.97507636    -0.07380
C3506       C  0.93594503  0.79060607  0.97721913    -0.08120
C3507       C  0.90195831  0.78214104  0.99037482    -0.02680
C3508       C  0.88418913  0.81147265  0.50678726     0.04140
N3509       N  0.84787822  0.80853769  0.51719127     0.66650
H3510       H  0.88740332  0.86668686  0.52451388     0.15550
H3511       H  0.95131186  0.77028491  0.96495681     0.15260
N3512       N  0.47621773  0.83166741  0.94848561     0.74350
O3513       O  0.84077099  0.80529825  0.54950188    -0.39100
O3514       O  0.82510709  0.82172689  0.49755708    -0.39040
O3515       O  0.50058075  0.80989164  0.44488305    -0.39750
O3516       O  0.46760608  0.84803256  0.92145942    -0.39810
C3517       C  0.63348302  0.65489585  0.95204742    -0.12090
C3518       C  0.59702949  0.64777067  0.95035269     0.04910
C3519       C  0.57421520  0.67661055  0.95386626    -0.07380
C3520       C  0.58893486  0.71125182  0.96157148    -0.08120
C3521       C  0.62611891  0.71941623  0.96236017    -0.02680
C3522       C  0.64792545  0.68966566  0.95683720     0.04140
N3523       N  0.68529914  0.69389783  0.95337858     0.66650
H3524       H  0.65126370  0.63304422  0.94987231     0.15550
H3525       H  0.57050350  0.73196722  0.96248980     0.15260
N3526       N  0.53631792  0.67171793  0.94766930     0.74350
O3527       O  0.70455789  0.68557972  0.97887956    -0.39100
O3528       O  0.69747677  0.69118765  0.92252329    -0.39040
O3529       O  0.51641411  0.69776363  0.45097353    -0.39750
O3530       O  0.52341289  0.64327585  0.93342361    -0.39810
C3531       C  0.60638254  0.84758120  0.94803959    -0.12090
C3532       C  0.57237512  0.84692666  0.96243355     0.04910
C3533       C  0.56337196  0.82013465  0.98706479    -0.07380
C3534       C  0.58555420  0.79075035  0.98896512    -0.08120
C3535       C  0.61921190  0.79130224  0.97237469    -0.02680
C3536       C  0.63111311  0.82537744  0.96118608     0.04140
N3537       N  0.66511385  0.84119993  0.97165775     0.66650
H3538       H  0.61604154  0.87104452  0.93466547     0.15550
H3539       H  0.57740392  0.76921680  0.00546943     0.15260
N3540       N  0.53385478  0.82292634  0.01120347     0.74350
O3541       O  0.67967618  0.86518344  0.95348252    -0.39100
O3542       O  0.67643496  0.83727905  0.00259175    -0.39040
O3543       O  0.52092846  0.85252959  0.01872324    -0.39750
O3544       O  0.52286279  0.79630724  0.52796678    -0.39810
C3545       C  0.98238311  0.57007975  0.69735717    -0.12090
C3546       C  0.50509298  0.60083922  0.70323820     0.04910
C3547       C  0.52285755  0.61365813  0.67277465    -0.07380
C3548       C  0.52156550  0.59398364  0.64073095    -0.08120
C3549       C  0.50049754  0.56229349  0.63507267    -0.02680
C3550       C  0.97918279  0.55120481  0.66410148     0.04140
N3551       N  0.95291430  0.52244631  0.66068255     0.66650
H3552       H  0.96557172  0.56116142  0.71864211     0.15550
H3553       H  0.53681781  0.60524892  0.61934286     0.15260
N3554       N  0.54020896  0.64815325  0.67249853     0.74350
O3555       O  0.94282857  0.50640839  0.68783386    -0.39100
O3556       O  0.93382451  0.51892476  0.63329491    -0.39040
O3557       O  0.57301541  0.65078035  0.66562715    -0.39750
O3558       O  0.52152721  0.67449866  0.66756377    -0.39810
C3559       C  0.96284054  0.59486968  0.78713811    -0.12090
C3560       C  0.49668042  0.59464439  0.77020857     0.04910
C3561       C  0.52148857  0.57256109  0.78561669    -0.07380
C3562       C  0.51774554  0.56455336  0.82100755    -0.08120
C3563       C  0.48827837  0.57465361  0.84123175    -0.02680
C3564       C  0.95896009  0.58800964  0.82335204     0.04140
N3565       N  0.92723880  0.59882123  0.84127863     0.66650
H3566       H  0.94014613  0.60465386  0.77349033     0.15550
H3567       H  0.53821011  0.54941840  0.83278417     0.15260
N3568       N  0.54697654  0.55345459  0.76540521     0.74350
O3569       O  0.91054351  0.62463117  0.83029858    -0.39100
O3570       O  0.91344630  0.58067656  0.86538184    -0.39040
O3571       O  0.57692669  0.54769814  0.77871286    -0.39750
O3572       O  0.53690161  0.53569976  0.73811642    -0.39810
C3573       C  0.93492351  0.69015010  0.77349545    -0.12090
C3574       C  0.91307938  0.68969880  0.74368760     0.04910
C3575       C  0.92438850  0.67185244  0.71260128    -0.07380
C3576       C  0.95613792  0.65472427  0.71205673    -0.08120
C3577       C  0.97717624  0.65088095  0.74242918    -0.02680
C3578       C  0.96623801  0.67037298  0.77442101     0.04140
N3579       N  0.98418788  0.66928488  0.80851090     0.66650
H3580       H  0.92596372  0.70413876  0.79704649     0.15550
H3581       H  0.96207338  0.64213733  0.68698784     0.15260
N3582       N  0.90309546  0.66870606  0.68109268     0.74350
O3583       O  0.97099335  0.68417312  0.83553006    -0.39100
O3584       O  0.01305492  0.65413346  0.81244489    -0.39040
O3585       O  0.91593570  0.68086176  0.65305541    -0.39750
O3586       O  0.87959795  0.64383684  0.67844051    -0.39810
C3587       C  0.57487711  0.61801961  0.73764866    -0.12090
C3588       C  0.54577789  0.63934938  0.74637713     0.04910
C3589       C  0.55571244  0.67565138  0.75704526    -0.07380
C3590       C  0.59165055  0.68577027  0.76418999    -0.08120
C3591       C  0.61945333  0.66370482  0.75569347    -0.02680
C3592       C  0.61073080  0.62964364  0.74103215     0.04140
N3593       N  0.63752286  0.60730653  0.72661197     0.66650
H3594       H  0.57005744  0.59309997  0.72346549     0.15550
H3595       H  0.59829760  0.71314674  0.77217806     0.15260
N3596       N  0.53148644  0.70406662  0.75802034     0.74350
O3597       O  0.63464465  0.57416484  0.73015068    -0.39100
O3598       O  0.65989638  0.61942558  0.70488396    -0.39040
O3599       O  0.53263667  0.72619807  0.78384101    -0.39750
O3600       O  0.51673088  0.71275050  0.72986247    -0.39810
loop_ 
_geom_bond_atom_site_label_1 
_geom_bond_atom_site_label_2 
_geom_bond_distance 
_geom_bond_site_symmetry_2 
_ccdc_geom_bond_type 
C1          C427   1.585       .  S
C1         C2196   1.596       .  S
C1         C2210   1.586       .  S
C1         C2238   1.603       .  S
O2          Zr38   2.474       .  S
O2         C1813   1.293       .  A
O3          Zr37   2.503       .  S
O3           C14   1.303       .  A
O4          Zr10   2.519       .  S
O4           C15   1.309       .  A
O5         Zr910   2.541       .  S
O5           C16   1.312       .  A
O6          Zr40   2.432   1_455  S
O6           C16   1.291       .  A
O7         Zr489   2.387       .  S
O7           C15   1.283       .  A
O8         Zr910   2.438       .  S
O8           C14   1.292       .  A
O9          Zr10   2.389       .  S
O9           C13   1.276   1_455  A
Zr10        O905   2.541   1_545  S
Zr10        O908   2.438       .  S
Zr10         O12   2.345       .  S
Zr10         O18   2.339       .  S
Zr10        O911   2.355   1_545  S
Zr10        O920   2.349   1_455  S
O11         Zr37   2.325       .  S
O11         Zr40   2.347   1_455  S
O11        Zr910   2.355       .  S
O12       Zr1838   2.319   1_455  S
O12        Zr489   2.335       .  S
C13        O1802   1.293       .  A
C13         C413   1.484       .  S
C14         C284   1.503       .  S
C15         C368   1.483       .  S
C16         C273   1.512       .  S
H17          O18   0.965       .  S
O18        Zr937   2.332   1_545  S
O18        Zr489   2.359       .  S
H19        O1820   0.964       .  S
O20         Zr40   2.322       .  S
O20        Zr910   2.349   1_655  S
O20       Zr2738   2.341       .  S
O20        H1819   0.964       .  S
O21        Zr487   2.476   1_554  S
O21          C44   1.297       .  A
O22         Zr38   2.499       .  S
O22         C495   1.302       .  A
O23         Zr39   2.543       .  S
O23          C46   1.312       .  A
O24         Zr40   2.493   1_455  S
O24          C47   1.299       .  A
O25       Zr1840   2.476       .  S
O25          C48   1.297       .  A
O26         Zr39   2.525       .  S
O26        C2299   1.304   1_454  A
O27        Zr941   2.538   1_545  S
O27        C1850   1.310       .  A
O28         Zr41   2.568       .  S
O28          C51   1.318   1_554  A
O29         Zr39   2.410       .  S
O29          C50   1.289       .  A
O30       Zr1840   2.365       .  S
O30         C501   1.274       .  A
O31        Zr487   2.294   1_554  S
O31         C946   1.267       .  A
O32         Zr38   2.341       .  S
O32          C49   1.275       .  A
O33        Zr938   2.319       .  S
O33          C48   1.271       .  A
O34         Zr37   2.361       .  S
O34          C47   1.278       .  A
O35       Zr1841   2.354   1_455  S
O35          C44   1.278       .  A
O36         Zr41   2.410       .  S
O36         C945   1.287       .  A
Zr37        O471   2.476       .  S
Zr37        O481   2.294       .  S
Zr37         O55   2.326       .  S
Zr37        O918   2.332       .  S
Zr37        O493   2.331       .  S
Zr38        O933   2.319       .  S
Zr38       O1812   2.319       .  S
Zr38       O2720   2.341       .  S
Zr38        O942   2.318   1_545  S
Zr38        O503   2.323       .  S
Zr39        O457   2.387   1_554  S
Zr39        O462   2.335   1_554  S
Zr39        O468   2.359   1_554  S
Zr39        O943   2.323   1_545  S
Zr39       O1853   2.363   1_455  S
Zr40       O1825   2.476       .  S
Zr40       O1830   2.365       .  S
Zr40         O55   2.342   1_655  S
Zr40       O1842   2.350       .  S
Zr41        O927   2.538       .  S
Zr41       O1835   2.354       .  S
Zr41        O492   2.331   1_554  S
Zr41       O1843   2.353       .  S
Zr41       O2305   2.345   1_554  S
Zr41        O953   2.346       .  S
O42        Zr938   2.318       .  S
O42       Zr1840   2.350       .  S
O42        Zr491   2.331       .  S
O43        Zr487   2.331   1_554  S
O43        Zr939   2.323       .  S
O43       Zr1841   2.353   1_455  S
C44         C256   1.449       .  S
C45         O472   1.302   1_554  A
C45         O936   1.287   1_545  A
C45         C329   1.496       .  S
C46         O931   1.267   1_545  A
C46         C315   1.474       .  S
C47         C382   1.464       .  S
C48         C298   1.442       .  S
C49        O2276   1.304       .  A
C49         C343   1.511       .  S
C50        O1827   1.310   1_455  A
C50         C399   1.534       .  S
C51         O480   1.274       .  A
C51         C354   1.508       .  S
H52          O53   0.966       .  S
O53        Zr488   2.323   1_554  S
O53       Zr1839   2.363       .  S
O53        Zr941   2.346   1_545  S
H54         O505   0.962   1_554  S
O55       Zr2291   2.345   1_455  S
O55         H504   0.962       .  S
C56         C245   1.564       .  S
C56         C312   1.591       .  S
C56         C326   1.582       .  S
C56        C1128   1.610   1_545  S
O57         Zr93   2.506       .  S
O57          C68   1.305       .  A
O58         Zr92   2.526       .  S
O58          C69   1.310       .  A
O59         Zr65   2.475       .  S
O59          C70   1.295       .  A
O60         Zr65   2.464       .  S
O60          C71   1.294       .  A
O61         Zr95   2.338       .  S
O61          C71   1.275       .  A
O62         Zr94   2.358       .  S
O62          C70   1.279       .  A
O63         Zr65   2.396       .  S
O63          C69   1.284       .  A
O64         Zr65   2.396       .  S
O64          C68   1.284       .  A
Zr65         O66   2.339       .  S
Zr65         O67   2.330       .  S
Zr65         O75   2.348       .  S
Zr65         O73   2.351       .  S
O66         Zr92   2.360       .  S
O66         Zr95   2.338       .  S
O67         Zr93   2.350       .  S
O67         Zr94   2.316       .  S
C68         C441   1.482       .  S
C69         C130   1.506       .  S
C70         C217   1.483       .  S
C71         C242   1.447       .  S
H72          O73   0.966       .  S
O73         Zr92   2.357       .  S
O73         Zr94   2.314       .  S
H74          O75   0.966       .  S
O75         Zr93   2.337       .  S
O75         Zr95   2.320       .  S
O76         Zr92   2.571       .  S
O76          C99   1.318       .  A
O77         Zr93   2.536       .  S
O77         C100   1.311       .  A
O78         Zr94   2.523       .  S
O78         C101   1.307       .  A
O79         Zr95   2.481       .  S
O79         C102   1.299       .  A
O80         Zr95   2.509       .  S
O80         C103   1.304       .  A
O81         Zr94   2.462       .  S
O81         C104   1.295       .  A
O82         Zr96   2.519       .  S
O82         C105   1.306       .  A
O83         Zr96   2.515       .  S
O83         C106   1.305       .  A
O84         Zr94   2.286       .  S
O84         C105   1.258       .  A
O85         Zr95   2.353       .  S
O85         C106   1.274       .  A
O86         Zr92   2.419       .  S
O86         C101   1.290       .  A
O87         Zr93   2.355       .  S
O87         C104   1.278       .  A
O88         Zr93   2.385       .  S
O88         C103   1.282       .  A
O89         Zr92   2.363       .  S
O89         C102   1.280       .  A
O90         Zr96   2.361       .  S
O90          C99   1.279       .  A
O91         Zr96   2.387       .  S
O91         C100   1.284       .  A
Zr92         O98   2.323       .  S
Zr92        O110   2.345       .  S
Zr93         O97   2.325       .  S
Zr93        O108   2.330       .  S
Zr94         O98   2.338       .  S
Zr94        O108   2.348       .  S
Zr95         O97   2.323       .  S
Zr95        O110   2.335       .  S
Zr96         O97   2.343       .  S
Zr96         O98   2.339       .  S
Zr96        O110   2.333       .  S
Zr96        O108   2.323       .  S
C99         C200   1.509       .  S
C100        C144   1.520       .  S
C101        C231   1.518       .  S
C102        C161   1.459       .  S
C103        C189   1.483       .  S
C104        C119   1.443       .  S
C105        C172   1.468       .  S
C106        C424   1.486       .  S
H107        O108   0.965       .  S
H109        O110   0.965       .  S
C111        C116   1.586       .  S
C111        C371   1.598       .  S
C111        C385   1.579       .  S
C111        C583   1.605       .  S
C112        C214   1.573       .  S
C112        C259   1.561       .  S
C112        C270   1.611       .  S
C112       C2003   1.587   1_455  S
C113        C147   1.626       .  S
C113        C340   1.592       .  S
C113        C357   1.597       .  S
C113        C608   1.595       .  S
C114        C175   1.623       .  S
C114        C287   1.623       .  S
C114        C301   1.548       .  S
C114       C1086   1.603       .  S
C115        C116   1.410       .  A
C115        C120   1.396       .  A
C115        H122   1.047       .  S
C116        C117   1.447       .  A
C117        C118   1.395       .  A
C117        N124   1.426       .  S
C118        C119   1.384       .  A
C118        H123   1.086       .  S
C119        C120   1.397       .  A
C120        N121   1.440       .  S
N121        O125   1.263       .  A
N121        O126   1.261       .  A
N124        O127   1.262       .  A
N124        O128   1.263       .  A
C129        C130   1.390       .  A
C129        C134   1.418       .  A
C129        H136   1.082       .  S
C130        C131   1.415       .  A
C131        C132   1.400       .  A
C131        N138   1.434       .  S
C132        C133   1.416   1_554  A
C132        H137   1.078       .  S
C133        C561   1.605       .  S
C133        C134   1.451   1_556  A
C134        N585   1.419   1_554  S
N135        C584   1.419       .  S
N135        O139   1.264       .  A
N135        O140   1.255       .  A
N138        O141   1.262       .  A
N138        O142   1.263       .  A
C143        C144   1.404       .  A
C143        C148   1.411       .  A
C143        H150   1.084       .  S
C144        C145   1.404       .  A
C145        C146   1.422       .  A
C145        N152   1.431       .  S
C146        C147   1.425       .  A
C146        H151   1.052       .  S
C147        C148   1.441       .  A
C148        N149   1.429       .  S
N149        O153   1.262       .  A
N149        O154   1.263       .  A
N152        O155   1.262       .  A
N152        O156   1.262       .  A
C157        C158   1.426       .  A
C157        C162   1.394       .  A
C157        H164   1.077       .  S
C158        C563   1.595   1_554  S
C158        C159   1.434       .  A
C159        C160   1.408       .  A
C159        N166   1.427       .  S
C160        C161   1.395       .  A
C160        H165   1.083       .  S
C161        C162   1.407       .  A
C162        N163   1.445       .  S
N163        O167   1.263       .  A
N163        O168   1.261       .  A
N166        O169   1.264       .  A
N166        O170   1.256       .  A
C171        C172   1.417       .  A
C171        C176   1.417       .  A
C171        H178   1.083       .  S
C172        C173   1.365       .  A
C173        C174   1.373       .  A
C173        N180   1.437       .  S
C174        C175   1.449       .  A
C174        H179   1.052       .  S
C175        C176   1.448       .  A
C176        N177   1.459       .  S
N177        O181   1.260       .  A
N177        O182   1.263       .  A
N180        O183   1.262       .  A
N180        O184   1.263       .  A
C185        C186   1.422       .  A
C185        C190   1.405       .  A
C185        H192   1.067       .  S
C186       C1014   1.603   1_545  S
C186        C187   1.463       .  A
C187        C188   1.407       .  A
C187        N194   1.440       .  S
C188        C189   1.388       .  A
C188        H193   1.086       .  S
C189        C190   1.401       .  A
C190        N191   1.437       .  S
N191        O195   1.263       .  A
N191        O196   1.262       .  A
N194        O197   1.259       .  A
N194        O198   1.263       .  A
C199        C200   1.392       .  A
C199        C204   1.417       .  A
C199        H206   1.082       .  S
C200        C201   1.421       .  A
C201        C202   1.401       .  A
C201        N208   1.427       .  S
C202        C203   1.397       .  A
C202        H207   1.076       .  S
C203       C1912   1.587       .  S
C203        C204   1.455       .  A
C204        N205   1.431       .  S
N205        O209   1.263       .  A
N205        O210   1.258       .  A
N208        O211   1.260       .  A
N208        O212   1.263       .  A
C213        C214   1.425       .  A
C213        C218   1.418       .  A
C213        H220   1.076       .  S
C214        C215   1.438       .  A
C215        C216   1.378       .  A
C215        N222   1.439       .  S
C216        C217   1.396       .  A
C216        H221   1.086       .  S
C217        C218   1.410       .  A
C218        N219   1.435       .  S
N219        O223   1.262       .  A
N219        O224   1.260       .  A
N222        O225   1.261       .  A
N222        O226   1.263       .  A
C227        C228   1.422       .  A
C227        C232   1.403       .  A
C227        H234   1.076       .  S
C228        C956   1.610       .  S
C228        C229   1.465       .  A
C229        C230   1.432       .  A
C229        N236   1.453       .  S
C230        C231   1.401       .  A
C230        H235   1.083       .  S
C231        C232   1.412       .  A
C232        N233   1.438       .  S
N233        O237   1.263       .  A
N233        O238   1.263       .  A
N236        O239   1.263       .  A
N236        O240   1.258       .  A
C241        C242   1.407       .  A
C241        C246   1.404       .  A
C241        H248   1.074       .  S
C242        C243   1.403       .  A
C243        C244   1.394       .  A
C243        N250   1.445       .  S
C244        C245   1.417       .  A
C244        H249   1.079       .  S
C245        C246   1.409       .  A
C246        N247   1.440       .  S
N247        O251   1.263       .  A
N247        O252   1.259       .  A
N250        O253   1.263       .  A
N250        O254   1.263       .  A
C255        C256   1.379       .  A
C255        C260   1.384       .  A
C255        H262   1.087       .  S
C256        C257   1.416       .  A
C257        C258   1.413       .  A
C257        N264   1.443       .  S
C258        C259   1.412       .  A
C258        H263   1.078       .  S
C259        C260   1.448       .  A
C260        N261   1.439       .  S
N261        O265   1.261   1_455  A
N261        O266   1.263       .  A
N264        O267   1.262       .  A
N264        O268   1.263       .  A
C269        C270   1.419       .  A
C269        C274   1.433       .  A
C269       H2076   1.074   1_455  S
C270        C271   1.449       .  A
C271        C272   1.408       .  A
C271        N278   1.435       .  S
C272        C273   1.396       .  A
C272        H277   1.085       .  S
C273        C274   1.428       .  A
C274       N2075   1.447   1_455  S
N275       C2074   1.447       .  S
N275        O279   1.261       .  A
N275        O280   1.263       .  A
H276       C2069   1.074       .  S
N278        O281   1.263       .  A
N278        O282   1.261       .  A
C283        C288   1.414       .  A
C283       C1184   1.395   1_545  A
C283        H290   1.084       .  S
C284        C285   1.416       .  A
C284       C1183   1.395       .  A
C285        C286   1.426       .  A
C285        N292   1.445       .  S
C286        C287   1.431       .  A
C286        H291   1.078       .  S
C287       C1188   1.433       .  A
C288       C1187   1.433   1_545  A
C288        N289   1.428       .  S
N289        O293   1.264       .  A
N289        O294   1.260       .  A
N292        O295   1.262       .  A
N292        O296   1.262       .  A
C297        C298   1.397       .  A
C297        C302   1.390       .  A
C297        H304   1.086       .  S
C298        C299   1.407       .  A
C299        C300   1.404       .  A
C299        N306   1.446       .  S
C300        C301   1.420       .  A
C300        H305   1.079       .  S
C301        C302   1.449       .  A
C302       N1203   1.440       .  S
N303       C1202   1.440       .  S
N303        O307   1.260       .  A
N303        O308   1.262       .  A
N306        O309   1.262       .  A
N306        O310   1.263       .  A
C311        C312   1.422       .  A
C311        C316   1.411       .  A
C311        H318   1.076       .  S
C312       C1213   1.410   1_545  A
C313        C314   1.404       .  A
C313       C1212   1.410       .  A
C313        N320   1.439       .  S
C314       C1215   1.419       .  A
C314        H319   1.085       .  S
C315        C316   1.415       .  A
C315       C1214   1.419   1_545  A
C316        N317   1.447       .  S
N317        O321   1.262       .  A
N317        O772   1.262       .  A
N320        O323   1.263       .  A
N320        O324   1.263       .  A
O322        N767   1.262       .  A
C325        C326   1.413   1_565  A
C325        C330   1.416   1_565  A
C325        H332   1.080       .  S
C326        C327   1.431       .  A
C327        C328   1.401       .  A
C327        N334   1.431       .  S
C328        C329   1.397       .  A
C328        H333   1.082       .  S
C329        C330   1.415       .  A
C330        N781   1.433   1_544  S
N331        C780   1.433   1_565  S
N331        O336   1.261   1_565  A
N331       O1235   1.262       .  A
N334        O338   1.263       .  A
N334       O1237   1.261       .  A
O335       N1231   1.262       .  A
O337       N1234   1.261       .  A
C339        C340   1.441       .  A
C339        C344   1.427       .  A
C339        H346   1.076       .  S
C340        C791   1.425       .  A
C341        C790   1.425       .  A
C341        C792   1.381       .  A
C341        N348   1.426       .  S
C342        C343   1.405       .  A
C342        C791   1.381       .  A
C342        H797   1.084       .  S
C343        C344   1.408       .  A
C344       N2145   1.437       .  S
N345       C2144   1.437       .  S
N345        O349   1.262   1_655  A
N345        O800   1.262   1_655  A
H347        C792   1.084       .  S
N348        O352   1.263       .  A
N348        O801   1.263       .  A
O350        N795   1.262   1_455  A
O351        N798   1.263       .  A
C353        C354   1.397   1_554  A
C353        C358   1.419       .  A
C353        H360   1.084       .  S
C354        C805   1.430       .  A
C355        C356   1.400       .  A
C355        C804   1.430       .  A
C355       N2162   1.439       .  S
C356        C357   1.402       .  A
C356        H361   1.074       .  S
C357        C808   1.440       .  A
C358        C807   1.440   1_554  A
C358        N359   1.424       .  S
N359        O363   1.262       .  A
N359        O364   1.262   1_554  A
N362       C2155   1.439       .  S
N362        O366   1.262       .  A
N362        O815   1.262   1_655  A
O365        N812   1.262   1_455  A
C367        C368   1.387       .  A
C367        C372   1.404       .  A
C367        H374   1.085       .  S
C368        C369   1.417       .  A
C369        C370   1.418       .  A
C369        N376   1.447       .  S
C370        C371   1.419       .  A
C370        H375   1.067       .  S
C371        C372   1.428       .  A
C372        N373   1.415       .  S
N373        O377   1.262       .  A
N373        O378   1.259       .  A
N376        O380   1.262       .  A
N376        O829   1.263       .  A
O379        N826   1.263       .  A
C381        C382   1.392       .  A
C381        C386   1.381       .  A
C381        H388   1.085       .  S
C382        C383   1.430       .  A
C383        C384   1.420       .  A
C383        N390   1.445       .  S
C384        C385   1.415       .  A
C384        H389   1.077       .  S
C385        C386   1.422       .  A
C386        N387   1.437       .  S
N387        O391   1.263       .  A
N387        O392   1.261       .  A
N390        O393   1.261       .  A
N390        O844   1.263       .  A
O394        N840   1.263       .  A
C395        C400   1.428       .  A
C395       C2196   1.423       .  A
C395        H402   1.080       .  S
C396       C1801   1.596       .  S
C396        C397   1.424       .  A
C396       C2195   1.423   1_455  A
C397        C398   1.400       .  A
C397        N404   1.432       .  S
C398        C399   1.416       .  A
C398        H403   1.083       .  S
C399       C2200   1.427   1_455  A
C400       C2199   1.427       .  A
C400        N401   1.439       .  S
N401        O405   1.262       .  A
N401        O406   1.260       .  A
N404        O407   1.262       .  A
N404        O408   1.261       .  A
C409        C414   1.412       .  A
C409       C2210   1.427       .  A
C409        H416   1.082       .  S
C410       C1801   1.586   1_655  S
C410        C411   1.415   1_655  A
C410       C2209   1.427       .  A
C411        C412   1.391       .  A
C411        N418   1.432       .  S
C412        C413   1.408   1_455  A
C412        H417   1.082       .  S
C413       C2214   1.413       .  A
C414       C2213   1.413       .  A
C414        N415   1.442       .  S
N415        O419   1.263       .  A
N415        O420   1.260       .  A
N418        O421   1.263       .  A
N418        O422   1.261       .  A
C423        C424   1.394       .  A
C423        C428   1.422       .  A
C423        H430   1.083       .  S
C424        C425   1.412       .  A
C425        C426   1.382       .  A
C425        N432   1.434       .  S
C426        C427   1.410       .  A
C426        H431   1.075       .  S
C427        C428   1.465       .  A
C428        N429   1.458       .  S
N429        O433   1.263       .  A
N429        O434   1.259       .  A
N432        O435   1.261       .  A
N432        O436   1.263       .  A
C437        C438   1.419       .  A
C437        C442   1.405       .  A
C437        H444   1.075       .  S
C438       C1801   1.603       .  S
C438        C439   1.448       .  A
C439        C440   1.412       .  A
C439        N446   1.436       .  S
C440        C441   1.396       .  A
C440        H445   1.085       .  S
C441        C442   1.408       .  A
C442        N443   1.438       .  S
N443        O447   1.263       .  A
N443        O448   1.262       .  A
N446        O449   1.263       .  A
N446        O450   1.261       .  A
C451       C2646   1.596       .  S
C451       C2660   1.586       .  S
C451        C877   1.585       .  S
C451       C2688   1.603       .  S
O452       Zr488   2.474       .  S
O452       C2263   1.293       .  A
O453       Zr487   2.503       .  S
O453        C464   1.303       .  A
O454       Zr460   2.519       .  S
O454        C465   1.309       .  A
O455      Zr1360   2.541       .  S
O455        C466   1.312       .  A
O456       Zr490   2.432   1_455  S
O456        C466   1.291       .  A
O457        C465   1.283       .  A
O458      Zr1360   2.438       .  S
O458        C464   1.292       .  A
O459       Zr460   2.389       .  S
O459        C463   1.276   1_455  A
Zr460      O1355   2.541   1_545  S
Zr460      O1358   2.438       .  S
Zr460      O1361   2.355   1_545  S
Zr460       O462   2.345       .  S
Zr460      O1370   2.349   1_455  S
Zr460       O468   2.339       .  S
O461      Zr1360   2.355       .  S
O461       Zr487   2.325       .  S
O461       Zr490   2.347   1_455  S
O462      Zr2288   2.319   1_455  S
C463       O2252   1.293       .  A
C463        C863   1.484       .  S
C464        C734   1.503       .  S
C465        C818   1.483       .  S
C466        C723   1.512       .  S
H467        O468   0.965       .  S
O468      Zr1387   2.332   1_545  S
H469       O2270   0.964       .  S
O470      Zr1360   2.349   1_655  S
O470      Zr3188   2.341       .  S
O470       Zr490   2.322       .  S
O470       H2269   0.964       .  S
O471        C494   1.297       .  A
O472       Zr488   2.499       .  S
O473       Zr489   2.543       .  S
O473        C496   1.312       .  A
O474       Zr490   2.493   1_455  S
O474        C497   1.299       .  A
O475      Zr2290   2.476       .  S
O475        C498   1.297       .  A
O476       Zr489   2.525       .  S
O476       C1849   1.304   1_455  A
O477      Zr1391   2.538   1_545  S
O477       C2300   1.310       .  A
O478       Zr491   2.568       .  S
O478        C501   1.318       .  A
O479       Zr489   2.409       .  S
O479        C500   1.289       .  A
O480      Zr2290   2.365       .  S
O481       C1396   1.267       .  A
O482       Zr488   2.341       .  S
O482        C499   1.275       .  A
O483      Zr1388   2.319       .  S
O483        C498   1.271       .  A
O484       Zr487   2.361       .  S
O484        C497   1.278       .  A
O485      Zr2291   2.354   1_455  S
O485        C494   1.278       .  A
O486       Zr491   2.410       .  S
O486       C1395   1.287       .  A
Zr487      O1368   2.332       .  S
Zr487       O505   2.326       .  S
Zr488      O1383   2.319       .  S
Zr488      O2262   2.319       .  S
Zr488      O3170   2.341       .  S
Zr488      O1392   2.318   1_545  S
Zr489      O1393   2.323   1_545  S
Zr489      O2303   2.363   1_455  S
Zr490      O2275   2.476       .  S
Zr490      O2280   2.365       .  S
Zr490      O2292   2.350       .  S
Zr490       O505   2.342   1_655  S
Zr491      O1377   2.538       .  S
Zr491      O2285   2.354       .  S
Zr491      O2293   2.353       .  S
Zr491      O1855   2.345       .  S
Zr491      O1403   2.346       .  S
O492      Zr1388   2.318       .  S
O492      Zr2290   2.350       .  S
O493      Zr1389   2.323       .  S
O493      Zr2291   2.353   1_455  S
C494        C706   1.449       .  S
C495       O1386   1.287   1_545  A
C495        C779   1.496       .  S
C496       O1381   1.267   1_545  A
C496        C765   1.474       .  S
C497        C832   1.464       .  S
C498        C748   1.442       .  S
C499       O1826   1.304   1_556  A
C499        C793   1.511       .  S
C500       O2277   1.310   1_455  A
C500        C849   1.533       .  S
C501        C804   1.508       .  S
H502        O503   0.966       .  S
O503      Zr2289   2.363       .  S
O503      Zr1391   2.346   1_545  S
O505      Zr1841   2.345   1_456  S
C506       C1578   1.610   1_545  S
C506        C695   1.564       .  S
C506        C762   1.591       .  S
C506        C776   1.582       .  S
O507       Zr543   2.505       .  S
O507        C518   1.305       .  A
O508       Zr542   2.526       .  S
O508        C519   1.310       .  A
O509       Zr515   2.475       .  S
O509        C520   1.295       .  A
O510       Zr515   2.464       .  S
O510        C521   1.294       .  A
O511       Zr545   2.338       .  S
O511        C521   1.275       .  A
O512       Zr544   2.358       .  S
O512        C520   1.279       .  A
O513       Zr515   2.396       .  S
O513        C519   1.284       .  A
O514       Zr515   2.396       .  S
O514        C518   1.284       .  A
Zr515       O516   2.339       .  S
Zr515       O517   2.330       .  S
Zr515       O525   2.348       .  S
Zr515       O523   2.351       .  S
O516       Zr542   2.360       .  S
O516       Zr545   2.338       .  S
O517       Zr543   2.350       .  S
O517       Zr544   2.316       .  S
C518        C891   1.482       .  S
C519        C580   1.506       .  S
C520        C667   1.483       .  S
C521        C692   1.447       .  S
H522        O523   0.966       .  S
O523       Zr542   2.357       .  S
O523       Zr544   2.314       .  S
H524        O525   0.966       .  S
O525       Zr543   2.337       .  S
O525       Zr545   2.320       .  S
O526       Zr542   2.571       .  S
O526        C549   1.318       .  A
O527       Zr543   2.536       .  S
O527        C550   1.311       .  A
O528       Zr544   2.523       .  S
O528        C551   1.307       .  A
O529       Zr545   2.481       .  S
O529        C552   1.299       .  A
O530       Zr545   2.509       .  S
O530        C553   1.304       .  A
O531       Zr544   2.462       .  S
O531        C554   1.295       .  A
O532       Zr546   2.519       .  S
O532        C555   1.306       .  A
O533       Zr546   2.515       .  S
O533        C556   1.305       .  A
O534       Zr544   2.286       .  S
O534        C555   1.258       .  A
O535       Zr545   2.353       .  S
O535        C556   1.274       .  A
O536       Zr542   2.419       .  S
O536        C551   1.290       .  A
O537       Zr543   2.355       .  S
O537        C554   1.278       .  A
O538       Zr543   2.385       .  S
O538        C553   1.282       .  A
O539       Zr542   2.363       .  S
O539        C552   1.280       .  A
O540       Zr546   2.361       .  S
O540        C549   1.279       .  A
O541       Zr546   2.388       .  S
O541        C550   1.284       .  A
Zr542       O548   2.323       .  S
Zr542       O560   2.345       .  S
Zr543       O547   2.325       .  S
Zr543       O558   2.330       .  S
Zr544       O548   2.338       .  S
Zr544       O558   2.348       .  S
Zr545       O547   2.323       .  S
Zr545       O560   2.335       .  S
Zr546       O547   2.343       .  S
Zr546       O548   2.339       .  S
Zr546       O560   2.333       .  S
Zr546       O558   2.323       .  S
C549        C650   1.509       .  S
C550        C594   1.520       .  S
C551        C681   1.518       .  S
C552        C611   1.459       .  S
C553        C639   1.483       .  S
C554        C569   1.443       .  S
C555        C622   1.468       .  S
C556        C874   1.486       .  S
H557        O558   0.965       .  S
H559        O560   0.965       .  S
C561        C566   1.586       .  S
C561        C821   1.598       .  S
C561        C835   1.579       .  S
C562       C2453   1.587   1_455  S
C562        C664   1.573       .  S
C562        C709   1.561       .  S
C562        C720   1.610       .  S
C563        C597   1.626       .  S
C563        C790   1.592       .  S
C563        C807   1.597       .  S
C564        C625   1.623       .  S
C564       C1536   1.603       .  S
C564        C737   1.623       .  S
C564        C751   1.548       .  S
C565        C566   1.410       .  A
C565        C570   1.396       .  A
C565        H572   1.047       .  S
C566        C567   1.447       .  A
C567        C568   1.395       .  A
C567        N574   1.426       .  S
C568        C569   1.384       .  A
C568        H573   1.086       .  S
C569        C570   1.397       .  A
C570        N571   1.440       .  S
N571        O575   1.263       .  A
N571        O576   1.261       .  A
N574        O577   1.262       .  A
N574        O578   1.263       .  A
C579        C580   1.390       .  A
C579        C584   1.418       .  A
C579        H586   1.082       .  S
C580        C581   1.415       .  A
C581        C582   1.400       .  A
C581        N588   1.434       .  S
C582        C583   1.416       .  A
C582        H587   1.078       .  S
C583        C584   1.451       .  A
N585        O589   1.264       .  A
N585        O590   1.255       .  A
N588        O591   1.262       .  A
N588        O592   1.263       .  A
C593        C594   1.404       .  A
C593        C598   1.411       .  A
C593        H600   1.084       .  S
C594        C595   1.404       .  A
C595        C596   1.422       .  A
C595        N602   1.431       .  S
C596        C597   1.425       .  A
C596        H601   1.052       .  S
C597        C598   1.441       .  A
C598        N599   1.429       .  S
N599        O603   1.262       .  A
N599        O604   1.263       .  A
N602        O605   1.262       .  A
N602        O606   1.262       .  A
C607        C608   1.426       .  A
C607        C612   1.394       .  A
C607        H614   1.077       .  S
C608        C609   1.434       .  A
C609        C610   1.408       .  A
C609        N616   1.427       .  S
C610        C611   1.395       .  A
C610        H615   1.083       .  S
C611        C612   1.407       .  A
C612        N613   1.445       .  S
N613        O617   1.263       .  A
N613        O618   1.261       .  A
N616        O619   1.264       .  A
N616        O620   1.256       .  A
C621        C622   1.417       .  A
C621        C626   1.417       .  A
C621        H628   1.083       .  S
C622        C623   1.366       .  A
C623        C624   1.373       .  A
C623        N630   1.437       .  S
C624        C625   1.449       .  A
C624        H629   1.052       .  S
C625        C626   1.448       .  A
C626        N627   1.459       .  S
N627        O631   1.260       .  A
N627        O632   1.263       .  A
N630        O633   1.262       .  A
N630        O634   1.263       .  A
C635        C636   1.422       .  A
C635        C640   1.405       .  A
C635        H642   1.067       .  S
C636       C1464   1.603   1_545  S
C636        C637   1.463       .  A
C637        C638   1.407       .  A
C637        N644   1.440       .  S
C638        C639   1.388       .  A
C638        H643   1.086       .  S
C639        C640   1.401       .  A
C640        N641   1.437       .  S
N641        O645   1.263       .  A
N641        O646   1.262       .  A
N644        O647   1.259       .  A
N644        O648   1.263       .  A
C649        C650   1.392       .  A
C649        C654   1.417       .  A
C649        H656   1.082       .  S
C650        C651   1.421       .  A
C651        C652   1.401       .  A
C651        N658   1.427       .  S
C652        C653   1.397       .  A
C652        H657   1.076       .  S
C653       C2362   1.587       .  S
C653        C654   1.455       .  A
C654        N655   1.431       .  S
N655        O659   1.263       .  A
N655        O660   1.258       .  A
N658        O661   1.260       .  A
N658        O662   1.263       .  A
C663        C664   1.425       .  A
C663        C668   1.418       .  A
C663        H670   1.076       .  S
C664        C665   1.438       .  A
C665        C666   1.378       .  A
C665        N672   1.439       .  S
C666        C667   1.396       .  A
C666        H671   1.086       .  S
C667        C668   1.410       .  A
C668        N669   1.435       .  S
N669        O673   1.262       .  A
N669        O674   1.260       .  A
N672        O675   1.261       .  A
N672        O676   1.263       .  A
C677        C678   1.422       .  A
C677        C682   1.403       .  A
C677        H684   1.076       .  S
C678       C1406   1.610       .  S
C678        C679   1.465       .  A
C679        C680   1.432       .  A
C679        N686   1.453       .  S
C680        C681   1.401       .  A
C680        H685   1.083       .  S
C681        C682   1.412       .  A
C682        N683   1.438       .  S
N683        O687   1.263       .  A
N683        O688   1.263       .  A
N686        O689   1.263       .  A
N686        O690   1.258       .  A
C691        C692   1.407       .  A
C691        C696   1.404       .  A
C691        H698   1.074       .  S
C692        C693   1.403       .  A
C693        C694   1.394       .  A
C693        N700   1.445       .  S
C694        C695   1.417       .  A
C694        H699   1.079       .  S
C695        C696   1.409       .  A
C696        N697   1.440       .  S
N697        O701   1.263       .  A
N697        O702   1.259       .  A
N700        O703   1.263       .  A
N700        O704   1.263       .  A
C705        C706   1.379       .  A
C705        C710   1.384       .  A
C705        H712   1.087       .  S
C706        C707   1.416       .  A
C707        C708   1.413       .  A
C707        N714   1.443       .  S
C708        C709   1.412       .  A
C708        H713   1.078       .  S
C709        C710   1.448       .  A
C710        N711   1.439       .  S
N711        O715   1.261   1_455  A
N711        O716   1.263       .  A
N714        O717   1.262       .  A
N714        O718   1.263       .  A
C719        C720   1.419       .  A
C719        C724   1.433       .  A
C719       H2526   1.074   1_455  S
C720        C721   1.449       .  A
C721        C722   1.408       .  A
C721        N728   1.435       .  S
C722        C723   1.396       .  A
C722        H727   1.085       .  S
C723        C724   1.428       .  A
C724       N2525   1.447   1_455  S
N725       C2524   1.447       .  S
N725        O729   1.261       .  A
N725        O730   1.263       .  A
H726       C2519   1.074       .  S
N728        O731   1.263       .  A
N728        O732   1.261       .  A
C733       C1634   1.395   1_545  A
C733        C738   1.414       .  A
C733        H740   1.084       .  S
C734       C1633   1.395       .  A
C734        C735   1.416       .  A
C735        C736   1.426       .  A
C735        N742   1.445       .  S
C736        C737   1.431       .  A
C736        H741   1.078       .  S
C737       C1638   1.433       .  A
C738       C1637   1.433   1_545  A
C738        N739   1.428       .  S
N739        O743   1.264       .  A
N739        O744   1.260       .  A
N742        O745   1.262       .  A
N742        O746   1.262       .  A
C747        C748   1.397       .  A
C747        C752   1.390       .  A
C747        H754   1.086       .  S
C748        C749   1.407       .  A
C749        C750   1.404       .  A
C749        N756   1.446       .  S
C750        C751   1.420       .  A
C750        H755   1.079       .  S
C751        C752   1.449       .  A
C752       N1653   1.440       .  S
N753       C1652   1.440       .  S
N753        O757   1.260       .  A
N753        O758   1.262       .  A
N756        O759   1.262       .  A
N756        O760   1.263       .  A
C761        C762   1.422       .  A
C761        C766   1.411       .  A
C761        H768   1.076       .  S
C762       C1663   1.410   1_545  A
C763       C1662   1.410       .  A
C763        C764   1.404       .  A
C763        N770   1.439       .  S
C764       C1665   1.419       .  A
C764        H769   1.085       .  S
C765       C1664   1.419   1_545  A
C765        C766   1.415       .  A
C766        N767   1.447       .  S
N767        O771   1.262       .  A
N770        O773   1.263       .  A
N770        O774   1.263       .  A
C775        C776   1.413   1_565  A
C775        C780   1.416   1_565  A
C775        H782   1.080       .  S
C776        C777   1.431       .  A
C777        C778   1.401       .  A
C777        N784   1.431       .  S
C778        C779   1.397       .  A
C778        H783   1.082       .  S
C779        C780   1.415       .  A
N781       O1685   1.262       .  A
N781        O786   1.261   1_565  A
N784       O1687   1.261       .  A
N784        O788   1.263       .  A
O785       N1681   1.262       .  A
O787       N1684   1.261       .  A
C789        C790   1.441   1_554  A
C789        C794   1.427       .  A
C789        H796   1.076       .  S
C791        N798   1.426       .  S
C792        C793   1.405       .  A
C793        C794   1.408   1_556  A
C794       N2595   1.437       .  S
N795       C2594   1.437       .  S
N795        O799   1.262   1_655  A
N798        O802   1.263       .  A
C803        C804   1.397       .  A
C803        C808   1.419       .  A
C803        H810   1.084       .  S
C805        C806   1.400       .  A
C805       N2612   1.439       .  S
C806        C807   1.402       .  A
C806        H811   1.074       .  S
C808        N809   1.424       .  S
N809        O813   1.262       .  A
N809        O814   1.262       .  A
N812       C2605   1.439       .  S
N812        O816   1.262       .  A
C817        C818   1.387       .  A
C817        C822   1.404       .  A
C817        H824   1.085       .  S
C818        C819   1.417       .  A
C819        C820   1.418       .  A
C819        N826   1.447       .  S
C820        C821   1.419       .  A
C820        H825   1.067       .  S
C821        C822   1.428       .  A
C822        N823   1.415       .  S
N823        O827   1.262       .  A
N823        O828   1.259       .  A
N826        O830   1.262       .  A
C831        C832   1.392       .  A
C831        C836   1.381       .  A
C831        H838   1.085       .  S
C832        C833   1.430       .  A
C833        C834   1.420       .  A
C833        N840   1.445   1_556  S
C834        C835   1.415       .  A
C834        H839   1.077   1_556  S
C835        C836   1.422       .  A
C836        N837   1.437       .  S
N837        O841   1.263       .  A
N837        O842   1.261   1_556  A
N840        O843   1.261       .  A
C845       C2646   1.423       .  A
C845        C850   1.428       .  A
C845        H852   1.080       .  S
C846       C2251   1.596       .  S
C846       C2645   1.423   1_455  A
C846        C847   1.424       .  A
C847        C848   1.400       .  A
C847        N854   1.432       .  S
C848        C849   1.416       .  A
C848        H853   1.083       .  S
C849       C2650   1.427   1_455  A
C850       C2649   1.427       .  A
C850        N851   1.439       .  S
N851        O855   1.262       .  A
N851        O856   1.260       .  A
N854        O857   1.262       .  A
N854        O858   1.261       .  A
C859       C2660   1.427       .  A
C859        C864   1.412       .  A
C859        H866   1.082       .  S
C860       C2251   1.586   1_655  S
C860       C2659   1.427       .  A
C860        C861   1.415   1_655  A
C861        C862   1.391       .  A
C861        N868   1.432       .  S
C862        C863   1.408   1_455  A
C862        H867   1.082       .  S
C863       C2664   1.413       .  A
C864       C2663   1.413       .  A
C864        N865   1.442       .  S
N865        O869   1.263       .  A
N865        O870   1.260       .  A
N868        O871   1.263       .  A
N868        O872   1.261       .  A
C873        C874   1.394       .  A
C873        C878   1.422       .  A
C873        H880   1.083       .  S
C874        C875   1.412       .  A
C875        C876   1.382       .  A
C875        N882   1.434       .  S
C876        C877   1.410       .  A
C876        H881   1.075       .  S
C877        C878   1.465       .  A
C878        N879   1.458       .  S
N879        O883   1.263       .  A
N879        O884   1.259       .  A
N882        O885   1.261       .  A
N882        O886   1.263       .  A
C887        C888   1.419       .  A
C887        C892   1.405       .  A
C887        H894   1.075       .  S
C888       C2251   1.603       .  S
C888        C889   1.448       .  A
C889        C890   1.412       .  A
C889        N896   1.436       .  S
C890        C891   1.396       .  A
C890        H895   1.085       .  S
C891        C892   1.408       .  A
C892        N893   1.438       .  S
N893        O897   1.263       .  A
N893        O898   1.262       .  A
N896        O899   1.263       .  A
N896        O900   1.261       .  A
C901       C3096   1.596       .  S
C901       C3110   1.586       .  S
C901       C1327   1.585       .  S
C901       C3138   1.603       .  S
O902       Zr938   2.474       .  S
O902       C2713   1.293       .  A
O903       Zr937   2.503       .  S
O903        C914   1.303       .  A
O904       Zr910   2.519       .  S
O904        C915   1.309       .  A
O905        C916   1.312       .  A
O906       Zr940   2.432   1_455  S
O906        C916   1.291       .  A
O907      Zr1389   2.387       .  S
O907        C915   1.283       .  A
O908        C914   1.292   1_545  A
O909       Zr910   2.389       .  S
O909        C913   1.276   1_455  A
Zr910       O912   2.345       .  S
Zr910       O918   2.339       .  S
O911       Zr937   2.325       .  S
O911       Zr940   2.347   1_455  S
O912      Zr2738   2.319   1_455  S
O912      Zr1389   2.335       .  S
C913       O2702   1.293       .  A
C913       C1313   1.484       .  S
C914       C1184   1.503       .  S
C915       C1268   1.483       .  S
C916       C1173   1.512       .  S
H917        O918   0.965       .  S
O918      Zr1389   2.359       .  S
H919       O2720   0.964       .  S
O920      Zr1838   2.341       .  S
O920       Zr940   2.322   1_545  S
O920       H2719   0.964       .  S
O921      Zr1387   2.476   1_554  S
O921        C944   1.297       .  A
O922       Zr938   2.500       .  S
O922       C1395   1.302       .  A
O923       Zr939   2.543       .  S
O923        C946   1.312       .  A
O924       Zr940   2.493   1_455  S
O924        C947   1.299       .  A
O925      Zr2740   2.476       .  S
O925        C948   1.297       .  A
O926       Zr939   2.525       .  S
O926       C3199   1.304   1_454  A
O927       C2750   1.310       .  A
O928       Zr941   2.568       .  S
O928        C951   1.318   1_554  A
O929       Zr939   2.410       .  S
O929        C950   1.289       .  A
O930      Zr2740   2.365       .  S
O930       C1401   1.274       .  A
O931      Zr1387   2.294   1_554  S
O932       Zr938   2.341       .  S
O932        C949   1.275       .  A
O933        C948   1.271   1_545  A
O934       Zr937   2.361       .  S
O934        C947   1.278       .  A
O935      Zr2741   2.354   1_455  S
O935        C944   1.278       .  A
O936       Zr941   2.410       .  S
Zr937      O1371   2.476       .  S
Zr937      O1381   2.294       .  S
Zr937      O1393   2.331       .  S
Zr937       O955   2.326       .  S
Zr938      O2712   2.319       .  S
Zr938      O1820   2.341       .  S
Zr938      O1403   2.323       .  S
Zr939      O1357   2.387   1_554  S
Zr939      O1362   2.335   1_554  S
Zr939      O1368   2.359   1_554  S
Zr939      O2753   2.363   1_455  S
Zr940      O2725   2.476       .  S
Zr940      O2730   2.365       .  S
Zr940      O2742   2.350       .  S
Zr940       O955   2.342   1_655  S
Zr941      O2735   2.354       .  S
Zr941      O1392   2.331   1_554  S
Zr941      O2743   2.353       .  S
Zr941      O3205   2.345   1_554  S
O942      Zr2740   2.350       .  S
O942      Zr1391   2.331       .  S
O943      Zr1387   2.331   1_554  S
O943      Zr2741   2.353   1_455  S
C944       C1156   1.449       .  S
C945       O1372   1.302   1_554  A
C945       C1229   1.496       .  S
C946       C1215   1.474       .  S
C947       C1282   1.464       .  S
C948       C1198   1.442       .  S
C949       O3176   1.304       .  A
C949       C1243   1.511       .  S
C950       O2727   1.310   1_455  A
C950       C1299   1.534       .  S
C951       O1380   1.274       .  A
C951       C1254   1.508       .  S
H952        O953   0.966       .  S
O953      Zr1388   2.323   1_554  S
O953      Zr2739   2.363       .  S
H954       O1405   0.962   1_554  S
O955      Zr3191   2.345   1_455  S
O955       H1404   0.962       .  S
C956       C1145   1.564       .  S
C956       C1212   1.591       .  S
C956       C1226   1.582       .  S
O957       Zr993   2.505       .  S
O957        C968   1.305       .  A
O958       Zr992   2.526       .  S
O958        C969   1.310       .  A
O959       Zr965   2.475       .  S
O959        C970   1.295       .  A
O960       Zr965   2.464       .  S
O960        C971   1.294       .  A
O961       Zr995   2.338       .  S
O961        C971   1.275       .  A
O962       Zr994   2.358       .  S
O962        C970   1.279       .  A
O963       Zr965   2.396       .  S
O963        C969   1.284       .  A
O964       Zr965   2.396       .  S
O964        C968   1.284       .  A
Zr965       O966   2.339       .  S
Zr965       O967   2.330       .  S
Zr965       O975   2.348       .  S
Zr965       O973   2.351       .  S
O966       Zr992   2.360       .  S
O966       Zr995   2.338       .  S
O967       Zr993   2.350       .  S
O967       Zr994   2.316       .  S
C968       C1341   1.482       .  S
C969       C1030   1.506       .  S
C970       C1117   1.483       .  S
C971       C1142   1.447       .  S
H972        O973   0.966       .  S
O973       Zr992   2.357       .  S
O973       Zr994   2.314       .  S
H974        O975   0.966       .  S
O975       Zr993   2.337       .  S
O975       Zr995   2.320       .  S
O976       Zr992   2.571       .  S
O976        C999   1.318       .  A
O977       Zr993   2.536       .  S
O977       C1000   1.311       .  A
O978       Zr994   2.523       .  S
O978       C1001   1.307       .  A
O979       Zr995   2.481       .  S
O979       C1002   1.299       .  A
O980       Zr995   2.509       .  S
O980       C1003   1.304       .  A
O981       Zr994   2.462       .  S
O981       C1004   1.295       .  A
O982       Zr996   2.519       .  S
O982       C1005   1.306       .  A
O983       Zr996   2.515       .  S
O983       C1006   1.305       .  A
O984       Zr994   2.286       .  S
O984       C1005   1.258       .  A
O985       Zr995   2.353       .  S
O985       C1006   1.274       .  A
O986       Zr992   2.419       .  S
O986       C1001   1.290       .  A
O987       Zr993   2.355       .  S
O987       C1004   1.278       .  A
O988       Zr993   2.385       .  S
O988       C1003   1.282       .  A
O989       Zr992   2.363       .  S
O989       C1002   1.280       .  A
O990       Zr996   2.361       .  S
O990        C999   1.279       .  A
O991       Zr996   2.387       .  S
O991       C1000   1.284       .  A
Zr992       O998   2.323       .  S
Zr992      O1010   2.345       .  S
Zr993       O997   2.325       .  S
Zr993      O1008   2.330       .  S
Zr994       O998   2.338       .  S
Zr994      O1008   2.348       .  S
Zr995       O997   2.323       .  S
Zr995      O1010   2.335       .  S
Zr996       O997   2.343       .  S
Zr996       O998   2.339       .  S
Zr996      O1010   2.333       .  S
Zr996      O1008   2.323       .  S
C999       C1100   1.509       .  S
C1000      C1044   1.520       .  S
C1001      C1131   1.518       .  S
C1002      C1061   1.459       .  S
C1003      C1089   1.483       .  S
C1004      C1019   1.443       .  S
C1005      C1072   1.468       .  S
C1006      C1324   1.486       .  S
H1007      O1008   0.965       .  S
H1009      O1010   0.965       .  S
C1011      C1016   1.586       .  S
C1011      C1483   1.605       .  S
C1011      C1271   1.598       .  S
C1011      C1285   1.579       .  S
C1012      C2903   1.587   1_455  S
C1012      C1114   1.573       .  S
C1012      C1159   1.561       .  S
C1012      C1170   1.611       .  S
C1013      C1047   1.626       .  S
C1013      C1508   1.595       .  S
C1013      C1240   1.592       .  S
C1013      C1257   1.597       .  S
C1014      C1075   1.623       .  S
C1014      C1187   1.623       .  S
C1014      C1201   1.548       .  S
C1015      C1016   1.410       .  A
C1015      C1020   1.396       .  A
C1015      H1022   1.047       .  S
C1016      C1017   1.447       .  A
C1017      C1018   1.395       .  A
C1017      N1024   1.426       .  S
C1018      C1019   1.384       .  A
C1018      H1023   1.086       .  S
C1019      C1020   1.397       .  A
C1020      N1021   1.440       .  S
N1021      O1025   1.263       .  A
N1021      O1026   1.261       .  A
N1024      O1027   1.262       .  A
N1024      O1028   1.263       .  A
C1029      C1030   1.390       .  A
C1029      C1034   1.418       .  A
C1029      H1036   1.082       .  S
C1030      C1031   1.415       .  A
C1031      C1032   1.400       .  A
C1031      N1038   1.434       .  S
C1032      C1033   1.416   1_554  A
C1032      H1037   1.078       .  S
C1033      C1461   1.605       .  S
C1033      C1034   1.451   1_556  A
C1034      N1485   1.419   1_554  S
N1035      C1484   1.419       .  S
N1035      O1039   1.264       .  A
N1035      O1040   1.255       .  A
N1038      O1041   1.262       .  A
N1038      O1042   1.263       .  A
C1043      C1044   1.404       .  A
C1043      C1048   1.411       .  A
C1043      H1050   1.084       .  S
C1044      C1045   1.404       .  A
C1045      C1046   1.422       .  A
C1045      N1052   1.431       .  S
C1046      C1047   1.425       .  A
C1046      H1051   1.052       .  S
C1047      C1048   1.441       .  A
C1048      N1049   1.429       .  S
N1049      O1053   1.262       .  A
N1049      O1054   1.263       .  A
N1052      O1055   1.262       .  A
N1052      O1056   1.262       .  A
C1057      C1058   1.426       .  A
C1057      C1062   1.394       .  A
C1057      H1064   1.077       .  S
C1058      C1463   1.595   1_554  S
C1058      C1059   1.434       .  A
C1059      C1060   1.408       .  A
C1059      N1066   1.427       .  S
C1060      C1061   1.395       .  A
C1060      H1065   1.083       .  S
C1061      C1062   1.407       .  A
C1062      N1063   1.445       .  S
N1063      O1067   1.263       .  A
N1063      O1068   1.261       .  A
N1066      O1069   1.264       .  A
N1066      O1070   1.256       .  A
C1071      C1072   1.417       .  A
C1071      C1076   1.417       .  A
C1071      H1078   1.083       .  S
C1072      C1073   1.366       .  A
C1073      C1074   1.373       .  A
C1073      N1080   1.437       .  S
C1074      C1075   1.449       .  A
C1074      H1079   1.052       .  S
C1075      C1076   1.448       .  A
C1076      N1077   1.459       .  S
N1077      O1081   1.260       .  A
N1077      O1082   1.263       .  A
N1080      O1083   1.262       .  A
N1080      O1084   1.263       .  A
C1085      C1086   1.422       .  A
C1085      C1090   1.405       .  A
C1085      H1092   1.067       .  S
C1086      C1087   1.463       .  A
C1087      C1088   1.407       .  A
C1087      N1094   1.440       .  S
C1088      C1089   1.388       .  A
C1088      H1093   1.086       .  S
C1089      C1090   1.402       .  A
C1090      N1091   1.437       .  S
N1091      O1095   1.263       .  A
N1091      O1096   1.262       .  A
N1094      O1097   1.259       .  A
N1094      O1098   1.263       .  A
C1099      C1100   1.392       .  A
C1099      C1104   1.417       .  A
C1099      H1106   1.082       .  S
C1100      C1101   1.421       .  A
C1101      C1102   1.401       .  A
C1101      N1108   1.427       .  S
C1102      C1103   1.398       .  A
C1102      H1107   1.076       .  S
C1103      C2812   1.587       .  S
C1103      C1104   1.455       .  A
C1104      N1105   1.431       .  S
N1105      O1109   1.263       .  A
N1105      O1110   1.258       .  A
N1108      O1111   1.260       .  A
N1108      O1112   1.263       .  A
C1113      C1114   1.425       .  A
C1113      C1118   1.418       .  A
C1113      H1120   1.076       .  S
C1114      C1115   1.438       .  A
C1115      C1116   1.378       .  A
C1115      N1122   1.439       .  S
C1116      C1117   1.396       .  A
C1116      H1121   1.086       .  S
C1117      C1118   1.410       .  A
C1118      N1119   1.435       .  S
N1119      O1123   1.262       .  A
N1119      O1124   1.260       .  A
N1122      O1125   1.261       .  A
N1122      O1126   1.263       .  A
C1127      C1128   1.422       .  A
C1127      C1132   1.403       .  A
C1127      H1134   1.076       .  S
C1128      C1129   1.465       .  A
C1129      C1130   1.432       .  A
C1129      N1136   1.453       .  S
C1130      C1131   1.401       .  A
C1130      H1135   1.083       .  S
C1131      C1132   1.412       .  A
C1132      N1133   1.438       .  S
N1133      O1137   1.263       .  A
N1133      O1138   1.263       .  A
N1136      O1139   1.263       .  A
N1136      O1140   1.258   1_565  A
C1141      C1142   1.407       .  A
C1141      C1146   1.404       .  A
C1141      H1148   1.074       .  S
C1142      C1143   1.403       .  A
C1143      C1144   1.394       .  A
C1143      N1150   1.445       .  S
C1144      C1145   1.417       .  A
C1144      H1149   1.079       .  S
C1145      C1146   1.409       .  A
C1146      N1147   1.440       .  S
N1147      O1151   1.263       .  A
N1147      O1152   1.259       .  A
N1150      O1153   1.263       .  A
N1150      O1154   1.263       .  A
C1155      C1156   1.379       .  A
C1155      C1160   1.384       .  A
C1155      H1162   1.087       .  S
C1156      C1157   1.416       .  A
C1157      C1158   1.413       .  A
C1157      N1164   1.443       .  S
C1158      C1159   1.412       .  A
C1158      H1163   1.078       .  S
C1159      C1160   1.448       .  A
C1160      N1161   1.439       .  S
N1161      O1165   1.261   1_455  A
N1161      O1166   1.263       .  A
N1164      O1167   1.262   1_565  A
N1164      O1168   1.263   1_565  A
C1169      C1170   1.419       .  A
C1169      C1174   1.433       .  A
C1169      H2976   1.074   1_455  S
C1170      C1171   1.449       .  A
C1171      C1172   1.408       .  A
C1171      N1178   1.435       .  S
C1172      C1173   1.396       .  A
C1172      H1177   1.085       .  S
C1173      C1174   1.428       .  A
C1174      N2975   1.447   1_455  S
N1175      C2974   1.447       .  S
N1175      O1179   1.261       .  A
N1175      O1180   1.263       .  A
H1176      C2969   1.074       .  S
N1178      O1181   1.263       .  A
N1178      O1182   1.261       .  A
C1183      C1188   1.414       .  A
C1183      H1190   1.084       .  S
C1184      C1185   1.416       .  A
C1185      C1186   1.426       .  A
C1185      N1192   1.445       .  S
C1186      C1187   1.431       .  A
C1186      H1191   1.078       .  S
C1188      N1189   1.428       .  S
N1189      O1193   1.264       .  A
N1189      O1194   1.260       .  A
N1192      O1195   1.262       .  A
N1192      O1196   1.262       .  A
C1197      C1198   1.397       .  A
C1197      C1202   1.390   1_565  A
C1197      H1204   1.086   1_565  S
C1198      C1199   1.407       .  A
C1199      C1200   1.404       .  A
C1199      N1206   1.446       .  S
C1200      C1201   1.420       .  A
C1200      H1205   1.079       .  S
C1201      C1202   1.449   1_565  A
N1203      O1207   1.260       .  A
N1203      O1208   1.262       .  A
N1206      O1209   1.262       .  A
N1206      O1210   1.263       .  A
C1211      C1212   1.422       .  A
C1211      C1216   1.411       .  A
C1211      H1218   1.076       .  S
C1213      C1214   1.404       .  A
C1213      N1220   1.439       .  S
C1214      H1219   1.085       .  S
C1215      C1216   1.415       .  A
C1216      N1217   1.447       .  S
N1217      O1221   1.262       .  A
N1217      O1672   1.262       .  A
N1220      O1223   1.263       .  A
N1220      O1224   1.263       .  A
O1222      N1667   1.262       .  A
C1225      C1226   1.413       .  A
C1225      C1230   1.416       .  A
C1225      H1232   1.080       .  S
C1226      C1227   1.431       .  A
C1227      C1228   1.401       .  A
C1227      N1234   1.431       .  S
C1228      C1229   1.397       .  A
C1228      H1233   1.082       .  S
C1229      C1230   1.415       .  A
C1230      N1681   1.433   1_554  S
N1231      C1680   1.433       .  S
N1231      O1236   1.261       .  A
N1234      O1238   1.263       .  A
C1239      C1240   1.441       .  A
C1239      C1244   1.427       .  A
C1239      H1246   1.076       .  S
C1240      C1691   1.425       .  A
C1241      C1690   1.425       .  A
C1241      C1692   1.381       .  A
C1241      N1248   1.426       .  S
C1242      C1691   1.381       .  A
C1242      C1243   1.405       .  A
C1242      H1697   1.084       .  S
C1243      C1244   1.408       .  A
C1244      N3045   1.437       .  S
N1245      C3044   1.437       .  S
N1245      O1249   1.262   1_655  A
N1245      O1700   1.262   1_655  A
H1247      C1692   1.084       .  S
N1248      O1701   1.263       .  A
N1248      O1252   1.263       .  A
O1250      N1695   1.262   1_455  A
O1251      N1698   1.263       .  A
C1253      C1254   1.397   1_554  A
C1253      C1258   1.419       .  A
C1253      H1260   1.084       .  S
C1254      C1705   1.430       .  A
C1255      C1704   1.430       .  A
C1255      C1256   1.400       .  A
C1255      N3062   1.439       .  S
C1256      C1257   1.402       .  A
C1256      H1261   1.074       .  S
C1257      C1708   1.440       .  A
C1258      C1707   1.440   1_554  A
C1258      N1259   1.424       .  S
N1259      O1263   1.262       .  A
N1259      O1264   1.262   1_554  A
N1262      C3055   1.439       .  S
N1262      O1715   1.262   1_655  A
N1262      O1266   1.262       .  A
O1265      N1712   1.262   1_455  A
C1267      C1268   1.387       .  A
C1267      C1272   1.404       .  A
C1267      H1274   1.085       .  S
C1268      C1269   1.417       .  A
C1269      C1270   1.418       .  A
C1269      N1276   1.447       .  S
C1270      C1271   1.419       .  A
C1270      H1275   1.067       .  S
C1271      C1272   1.428       .  A
C1272      N1273   1.415       .  S
N1273      O1277   1.262       .  A
N1273      O1278   1.259       .  A
N1276      O1729   1.263       .  A
N1276      O1280   1.262       .  A
O1279      N1726   1.263       .  A
C1281      C1282   1.392       .  A
C1281      C1286   1.381       .  A
C1281      H1288   1.085       .  S
C1282      C1283   1.430       .  A
C1283      C1284   1.420       .  A
C1283      N1290   1.445       .  S
C1284      C1285   1.415       .  A
C1284      H1289   1.077       .  S
C1285      C1286   1.422       .  A
C1286      N1287   1.437       .  S
N1287      O1291   1.263       .  A
N1287      O1292   1.261       .  A
N1290      O1293   1.261       .  A
N1290      O1744   1.263       .  A
O1294      N1740   1.263       .  A
C1295      C3096   1.422       .  A
C1295      C1300   1.428       .  A
C1295      H1302   1.080       .  S
C1296      C2701   1.596       .  S
C1296      C3095   1.422   1_455  A
C1296      C1297   1.424       .  A
C1297      C1298   1.400       .  A
C1297      N1304   1.432       .  S
C1298      C1299   1.416       .  A
C1298      H1303   1.083       .  S
C1299      C3100   1.427   1_455  A
C1300      C3099   1.427       .  A
C1300      N1301   1.439       .  S
N1301      O1305   1.262       .  A
N1301      O1306   1.260       .  A
N1304      O1307   1.262       .  A
N1304      O1308   1.261       .  A
C1309      C3110   1.427       .  A
C1309      C1314   1.412       .  A
C1309      H1316   1.082       .  S
C1310      C2701   1.586   1_655  S
C1310      C3109   1.427       .  A
C1310      C1311   1.415   1_655  A
C1311      C1312   1.391       .  A
C1311      N1318   1.432       .  S
C1312      C1313   1.408   1_455  A
C1312      H1317   1.082       .  S
C1313      C3114   1.413       .  A
C1314      C3113   1.413       .  A
C1314      N1315   1.442       .  S
N1315      O1319   1.263       .  A
N1315      O1320   1.260       .  A
N1318      O1321   1.263       .  A
N1318      O1322   1.261       .  A
C1323      C1324   1.394       .  A
C1323      C1328   1.422       .  A
C1323      H1330   1.083       .  S
C1324      C1325   1.412       .  A
C1325      C1326   1.382       .  A
C1325      N1332   1.434       .  S
C1326      C1327   1.410       .  A
C1326      H1331   1.075       .  S
C1327      C1328   1.465       .  A
C1328      N1329   1.458       .  S
N1329      O1333   1.263       .  A
N1329      O1334   1.259       .  A
N1332      O1335   1.261       .  A
N1332      O1336   1.263       .  A
C1337      C1338   1.419       .  A
C1337      C1342   1.405       .  A
C1337      H1344   1.075       .  S
C1338      C2701   1.603       .  S
C1338      C1339   1.448       .  A
C1339      C1340   1.412       .  A
C1339      N1346   1.436       .  S
C1340      C1341   1.396       .  A
C1340      H1345   1.085       .  S
C1341      C1342   1.408       .  A
C1342      N1343   1.438       .  S
N1343      O1347   1.263       .  A
N1343      O1348   1.262       .  A
N1346      O1349   1.263       .  A
N1346      O1350   1.261       .  A
C1351      C3546   1.596       .  S
C1351      C3560   1.586       .  S
C1351      C1777   1.585       .  S
C1351      C3588   1.603       .  S
O1352     Zr1388   2.474       .  S
O1352      C3163   1.293       .  A
O1353     Zr1387   2.503       .  S
O1353      C1364   1.303       .  A
O1354     Zr1360   2.519       .  S
O1354      C1365   1.309       .  A
O1355      C1366   1.312       .  A
O1356     Zr1390   2.432   1_455  S
O1356      C1366   1.291       .  A
O1357      C1365   1.283       .  A
O1358      C1364   1.292   1_545  A
O1359     Zr1360   2.389       .  S
O1359      C1363   1.276   1_455  A
Zr1360     O1362   2.345       .  S
Zr1360     O1368   2.339       .  S
O1361     Zr1387   2.325       .  S
O1361     Zr1390   2.347   1_455  S
O1362     Zr3188   2.319   1_455  S
C1363      O3152   1.293       .  A
C1363      C1763   1.484       .  S
C1364      C1634   1.503       .  S
C1365      C1718   1.483       .  S
C1366      C1623   1.512       .  S
H1367      O1368   0.965       .  S
H1369      O3170   0.964       .  S
O1370     Zr2288   2.341       .  S
O1370     Zr1390   2.322   1_545  S
O1370      H3169   0.964       .  S
O1371      C1394   1.297       .  A
O1372     Zr1388   2.499       .  S
O1373     Zr1389   2.543       .  S
O1373      C1396   1.312       .  A
O1374     Zr1390   2.493   1_455  S
O1374      C1397   1.299       .  A
O1375     Zr3190   2.476       .  S
O1375      C1398   1.297       .  A
O1376     Zr1389   2.525       .  S
O1376      C2749   1.304   1_455  A
O1377      C3200   1.310       .  A
O1378     Zr1391   2.568       .  S
O1378      C1401   1.318       .  A
O1379     Zr1389   2.410       .  S
O1379      C1400   1.289       .  A
O1380     Zr3190   2.365       .  S
O1382     Zr1388   2.340       .  S
O1382      C1399   1.275       .  A
O1383      C1398   1.271   1_545  A
O1384     Zr1387   2.361       .  S
O1384      C1397   1.278       .  A
O1385     Zr3191   2.354   1_455  S
O1385      C1394   1.278       .  A
O1386     Zr1391   2.410       .  S
Zr1387     O1405   2.326       .  S
Zr1388     O3162   2.319       .  S
Zr1388     O2270   2.341       .  S
Zr1389     O3203   2.363   1_455  S
Zr1390     O3175   2.476       .  S
Zr1390     O3180   2.365       .  S
Zr1390     O3192   2.350       .  S
Zr1390     O1405   2.342   1_655  S
Zr1391     O3185   2.354       .  S
Zr1391     O3193   2.353       .  S
Zr1391     O2755   2.345       .  S
O1392     Zr3190   2.350       .  S
O1393     Zr3191   2.353   1_455  S
C1394      C1606   1.449       .  S
C1395      C1679   1.496       .  S
C1396      C1665   1.474       .  S
C1397      C1732   1.465       .  S
C1398      C1648   1.442       .  S
C1399      O2726   1.304   1_556  A
C1399      C1693   1.511       .  S
C1400      O3177   1.310   1_455  A
C1400      C1749   1.534       .  S
C1401      C1704   1.508       .  S
H1402      O1403   0.966       .  S
O1403     Zr3189   2.363       .  S
O1405     Zr2741   2.345   1_456  S
C1406      C1595   1.564       .  S
C1406      C1662   1.591       .  S
C1406      C1676   1.582       .  S
O1407     Zr1443   2.505       .  S
O1407      C1418   1.305       .  A
O1408     Zr1442   2.526       .  S
O1408      C1419   1.310       .  A
O1409     Zr1415   2.475       .  S
O1409      C1420   1.295       .  A
O1410     Zr1415   2.464       .  S
O1410      C1421   1.294       .  A
O1411     Zr1445   2.338       .  S
O1411      C1421   1.275       .  A
O1412     Zr1444   2.358       .  S
O1412      C1420   1.279       .  A
O1413     Zr1415   2.396       .  S
O1413      C1419   1.284       .  A
O1414     Zr1415   2.396       .  S
O1414      C1418   1.284       .  A
Zr1415     O1416   2.339       .  S
Zr1415     O1417   2.330       .  S
Zr1415     O1425   2.348       .  S
Zr1415     O1423   2.351       .  S
O1416     Zr1442   2.360       .  S
O1416     Zr1445   2.338       .  S
O1417     Zr1443   2.350       .  S
O1417     Zr1444   2.316       .  S
C1418      C1791   1.482       .  S
C1419      C1480   1.506       .  S
C1420      C1567   1.483       .  S
C1421      C1592   1.447       .  S
H1422      O1423   0.966       .  S
O1423     Zr1442   2.357       .  S
O1423     Zr1444   2.314       .  S
H1424      O1425   0.966       .  S
O1425     Zr1443   2.336       .  S
O1425     Zr1445   2.320       .  S
O1426     Zr1442   2.571       .  S
O1426      C1449   1.318       .  A
O1427     Zr1443   2.536       .  S
O1427      C1450   1.311       .  A
O1428     Zr1444   2.523       .  S
O1428      C1451   1.307       .  A
O1429     Zr1445   2.481       .  S
O1429      C1452   1.299       .  A
O1430     Zr1445   2.509       .  S
O1430      C1453   1.304       .  A
O1431     Zr1444   2.462       .  S
O1431      C1454   1.295       .  A
O1432     Zr1446   2.519       .  S
O1432      C1455   1.306       .  A
O1433     Zr1446   2.515       .  S
O1433      C1456   1.305       .  A
O1434     Zr1444   2.286       .  S
O1434      C1455   1.258       .  A
O1435     Zr1445   2.353       .  S
O1435      C1456   1.274       .  A
O1436     Zr1442   2.419       .  S
O1436      C1451   1.290       .  A
O1437     Zr1443   2.355       .  S
O1437      C1454   1.278       .  A
O1438     Zr1443   2.385       .  S
O1438      C1453   1.282       .  A
O1439     Zr1442   2.363       .  S
O1439      C1452   1.280       .  A
O1440     Zr1446   2.361       .  S
O1440      C1449   1.279       .  A
O1441     Zr1446   2.387       .  S
O1441      C1450   1.284       .  A
Zr1442     O1448   2.323       .  S
Zr1442     O1460   2.345       .  S
Zr1443     O1447   2.325       .  S
Zr1443     O1458   2.330       .  S
Zr1444     O1448   2.338       .  S
Zr1444     O1458   2.348       .  S
Zr1445     O1447   2.323       .  S
Zr1445     O1460   2.335       .  S
Zr1446     O1447   2.343       .  S
Zr1446     O1448   2.339       .  S
Zr1446     O1460   2.333       .  S
Zr1446     O1458   2.323       .  S
C1449      C1550   1.509       .  S
C1450      C1494   1.520       .  S
C1451      C1581   1.518       .  S
C1452      C1511   1.459       .  S
C1453      C1539   1.483       .  S
C1454      C1469   1.443       .  S
C1455      C1522   1.468       .  S
C1456      C1774   1.486       .  S
H1457      O1458   0.965       .  S
H1459      O1460   0.965       .  S
C1461      C1466   1.586       .  S
C1461      C1721   1.598       .  S
C1461      C1735   1.579       .  S
C1462      C3353   1.587   1_455  S
C1462      C1564   1.573       .  S
C1462      C1609   1.561       .  S
C1462      C1620   1.610       .  S
C1463      C1497   1.626       .  S
C1463      C1690   1.592       .  S
C1463      C1707   1.597       .  S
C1464      C1525   1.623       .  S
C1464      C1637   1.623       .  S
C1464      C1651   1.548       .  S
C1465      C1466   1.410       .  A
C1465      C1470   1.396       .  A
C1465      H1472   1.047       .  S
C1466      C1467   1.447       .  A
C1467      C1468   1.395       .  A
C1467      N1474   1.426       .  S
C1468      C1469   1.384       .  A
C1468      H1473   1.086       .  S
C1469      C1470   1.397       .  A
C1470      N1471   1.440       .  S
N1471      O1475   1.263       .  A
N1471      O1476   1.261       .  A
N1474      O1477   1.262       .  A
N1474      O1478   1.263       .  A
C1479      C1480   1.390       .  A
C1479      C1484   1.418       .  A
C1479      H1486   1.082       .  S
C1480      C1481   1.415       .  A
C1481      C1482   1.400       .  A
C1481      N1488   1.434       .  S
C1482      C1483   1.416       .  A
C1482      H1487   1.078       .  S
C1483      C1484   1.451       .  A
N1485      O1489   1.264       .  A
N1485      O1490   1.255       .  A
N1488      O1491   1.262       .  A
N1488      O1492   1.263       .  A
C1493      C1494   1.404       .  A
C1493      C1498   1.411       .  A
C1493      H1500   1.084       .  S
C1494      C1495   1.404       .  A
C1495      C1496   1.422       .  A
C1495      N1502   1.431       .  S
C1496      C1497   1.425       .  A
C1496      H1501   1.052       .  S
C1497      C1498   1.441       .  A
C1498      N1499   1.429       .  S
N1499      O1503   1.262       .  A
N1499      O1504   1.263       .  A
N1502      O1505   1.262       .  A
N1502      O1506   1.262       .  A
C1507      C1508   1.426       .  A
C1507      C1512   1.394       .  A
C1507      H1514   1.077       .  S
C1508      C1509   1.434       .  A
C1509      C1510   1.408       .  A
C1509      N1516   1.427       .  S
C1510      C1511   1.395       .  A
C1510      H1515   1.083       .  S
C1511      C1512   1.407       .  A
C1512      N1513   1.445       .  S
N1513      O1517   1.263       .  A
N1513      O1518   1.261       .  A
N1516      O1519   1.264       .  A
N1516      O1520   1.256       .  A
C1521      C1522   1.417       .  A
C1521      C1526   1.417       .  A
C1521      H1528   1.083       .  S
C1522      C1523   1.366       .  A
C1523      C1524   1.373       .  A
C1523      N1530   1.437       .  S
C1524      C1525   1.449       .  A
C1524      H1529   1.052       .  S
C1525      C1526   1.448       .  A
C1526      N1527   1.459       .  S
N1527      O1531   1.260       .  A
N1527      O1532   1.263       .  A
N1530      O1533   1.262       .  A
N1530      O1534   1.263       .  A
C1535      C1536   1.422       .  A
C1535      C1540   1.405       .  A
C1535      H1542   1.067       .  S
C1536      C1537   1.463       .  A
C1537      C1538   1.407       .  A
C1537      N1544   1.440       .  S
C1538      C1539   1.388       .  A
C1538      H1543   1.086       .  S
C1539      C1540   1.402       .  A
C1540      N1541   1.437       .  S
N1541      O1545   1.263       .  A
N1541      O1546   1.262       .  A
N1544      O1547   1.259       .  A
N1544      O1548   1.263       .  A
C1549      C1550   1.392       .  A
C1549      C1554   1.417       .  A
C1549      H1556   1.082       .  S
C1550      C1551   1.421       .  A
C1551      C1552   1.401       .  A
C1551      N1558   1.427       .  S
C1552      C1553   1.398       .  A
C1552      H1557   1.076       .  S
C1553      C3262   1.587       .  S
C1553      C1554   1.455       .  A
C1554      N1555   1.431       .  S
N1555      O1559   1.263       .  A
N1555      O1560   1.258       .  A
N1558      O1561   1.260       .  A
N1558      O1562   1.263       .  A
C1563      C1564   1.425       .  A
C1563      C1568   1.418       .  A
C1563      H1570   1.076       .  S
C1564      C1565   1.438       .  A
C1565      C1566   1.378       .  A
C1565      N1572   1.439       .  S
C1566      C1567   1.396       .  A
C1566      H1571   1.086       .  S
C1567      C1568   1.410       .  A
C1568      N1569   1.435       .  S
N1569      O1573   1.262       .  A
N1569      O1574   1.260       .  A
N1572      O1575   1.261       .  A
N1572      O1576   1.263       .  A
C1577      C1578   1.422       .  A
C1577      C1582   1.403       .  A
C1577      H1584   1.076       .  S
C1578      C1579   1.465       .  A
C1579      C1580   1.432       .  A
C1579      N1586   1.453       .  S
C1580      C1581   1.401       .  A
C1580      H1585   1.083       .  S
C1581      C1582   1.412       .  A
C1582      N1583   1.438       .  S
N1583      O1587   1.263       .  A
N1583      O1588   1.263       .  A
N1586      O1589   1.263       .  A
N1586      O1590   1.258   1_565  A
C1591      C1592   1.407       .  A
C1591      C1596   1.404       .  A
C1591      H1598   1.074       .  S
C1592      C1593   1.403       .  A
C1593      C1594   1.394       .  A
C1593      N1600   1.445       .  S
C1594      C1595   1.417       .  A
C1594      H1599   1.079       .  S
C1595      C1596   1.409       .  A
C1596      N1597   1.440       .  S
N1597      O1601   1.263       .  A
N1597      O1602   1.259       .  A
N1600      O1603   1.263       .  A
N1600      O1604   1.263       .  A
C1605      C1606   1.379       .  A
C1605      C1610   1.384       .  A
C1605      H1612   1.087       .  S
C1606      C1607   1.416       .  A
C1607      C1608   1.413       .  A
C1607      N1614   1.443       .  S
C1608      C1609   1.412       .  A
C1608      H1613   1.078       .  S
C1609      C1610   1.448       .  A
C1610      N1611   1.439       .  S
N1611      O1615   1.261   1_455  A
N1611      O1616   1.263       .  A
N1614      O1617   1.262   1_565  A
N1614      O1618   1.263   1_565  A
C1619      C1620   1.419       .  A
C1619      C1624   1.433       .  A
C1619      H3426   1.074   1_455  S
C1620      C1621   1.449       .  A
C1621      C1622   1.408       .  A
C1621      N1628   1.435       .  S
C1622      C1623   1.396       .  A
C1622      H1627   1.085       .  S
C1623      C1624   1.428       .  A
C1624      N3425   1.447   1_455  S
N1625      C3424   1.447       .  S
N1625      O1629   1.261       .  A
N1625      O1630   1.263       .  A
H1626      C3419   1.074       .  S
N1628      O1631   1.263       .  A
N1628      O1632   1.261       .  A
C1633      C1638   1.414       .  A
C1633      H1640   1.084       .  S
C1634      C1635   1.416       .  A
C1635      C1636   1.426       .  A
C1635      N1642   1.444       .  S
C1636      C1637   1.431       .  A
C1636      H1641   1.078       .  S
C1638      N1639   1.428       .  S
N1639      O1643   1.264       .  A
N1639      O1644   1.260       .  A
N1642      O1645   1.262       .  A
N1642      O1646   1.262       .  A
C1647      C1648   1.397       .  A
C1647      C1652   1.390   1_565  A
C1647      H1654   1.086   1_565  S
C1648      C1649   1.407       .  A
C1649      C1650   1.404       .  A
C1649      N1656   1.446       .  S
C1650      C1651   1.420       .  A
C1650      H1655   1.079       .  S
C1651      C1652   1.449   1_565  A
N1653      O1657   1.260       .  A
N1653      O1658   1.262       .  A
N1656      O1659   1.262       .  A
N1656      O1660   1.263       .  A
C1661      C1662   1.422       .  A
C1661      C1666   1.411       .  A
C1661      H1668   1.076       .  S
C1663      C1664   1.404       .  A
C1663      N1670   1.439       .  S
C1664      H1669   1.085       .  S
C1665      C1666   1.415       .  A
C1666      N1667   1.447       .  S
N1667      O1671   1.262       .  A
N1670      O1673   1.263       .  A
N1670      O1674   1.263       .  A
C1675      C1676   1.413       .  A
C1675      C1680   1.416       .  A
C1675      H1682   1.080       .  S
C1676      C1677   1.431       .  A
C1677      C1678   1.401       .  A
C1677      N1684   1.431       .  S
C1678      C1679   1.397       .  A
C1678      H1683   1.082       .  S
C1679      C1680   1.415       .  A
N1681      O1686   1.261       .  A
N1684      O1688   1.263       .  A
C1689      C1690   1.441   1_554  A
C1689      C1694   1.427       .  A
C1689      H1696   1.076       .  S
C1691      N1698   1.426       .  S
C1692      C1693   1.405       .  A
C1693      C1694   1.408   1_556  A
C1694      N3495   1.437       .  S
N1695      C3494   1.437       .  S
N1695      O1699   1.262   1_655  A
N1698      O1702   1.263       .  A
C1703      C1704   1.397       .  A
C1703      C1708   1.419       .  A
C1703      H1710   1.084       .  S
C1705      C1706   1.400       .  A
C1705      N3512   1.439       .  S
C1706      C1707   1.402       .  A
C1706      H1711   1.074       .  S
C1708      N1709   1.424       .  S
N1709      O1713   1.262       .  A
N1709      O1714   1.262       .  A
N1712      C3505   1.439       .  S
N1712      O1716   1.262       .  A
C1717      C1718   1.387       .  A
C1717      C1722   1.404       .  A
C1717      H1724   1.085       .  S
C1718      C1719   1.417       .  A
C1719      C1720   1.418       .  A
C1719      N1726   1.447       .  S
C1720      C1721   1.419       .  A
C1720      H1725   1.067       .  S
C1721      C1722   1.428       .  A
C1722      N1723   1.415       .  S
N1723      O1727   1.262       .  A
N1723      O1728   1.259       .  A
N1726      O1730   1.262       .  A
C1731      C1732   1.392       .  A
C1731      C1736   1.381       .  A
C1731      H1738   1.085       .  S
C1732      C1733   1.430       .  A
C1733      C1734   1.420       .  A
C1733      N1740   1.445   1_556  S
C1734      C1735   1.415       .  A
C1734      H1739   1.077   1_556  S
C1735      C1736   1.422       .  A
C1736      N1737   1.437       .  S
N1737      O1741   1.263       .  A
N1737      O1742   1.261   1_556  A
N1740      O1743   1.261       .  A
C1745      C3546   1.422       .  A
C1745      C1750   1.428       .  A
C1745      H1752   1.080       .  S
C1746      C3151   1.596       .  S
C1746      C3545   1.422   1_455  A
C1746      C1747   1.424       .  A
C1747      C1748   1.400       .  A
C1747      N1754   1.432       .  S
C1748      C1749   1.416       .  A
C1748      H1753   1.083       .  S
C1749      C3550   1.427   1_455  A
C1750      C3549   1.427       .  A
C1750      N1751   1.439       .  S
N1751      O1755   1.262       .  A
N1751      O1756   1.260       .  A
N1754      O1757   1.262       .  A
N1754      O1758   1.261       .  A
C1759      C3560   1.427       .  A
C1759      C1764   1.412       .  A
C1759      H1766   1.082       .  S
C1760      C3151   1.586   1_655  S
C1760      C3559   1.427       .  A
C1760      C1761   1.415   1_655  A
C1761      C1762   1.391       .  A
C1761      N1768   1.432       .  S
C1762      C1763   1.408   1_455  A
C1762      H1767   1.082       .  S
C1763      C3564   1.413       .  A
C1764      C3563   1.413       .  A
C1764      N1765   1.442       .  S
N1765      O1769   1.263       .  A
N1765      O1770   1.260       .  A
N1768      O1771   1.263       .  A
N1768      O1772   1.261       .  A
C1773      C1774   1.394       .  A
C1773      C1778   1.422       .  A
C1773      H1780   1.083       .  S
C1774      C1775   1.412       .  A
C1775      C1776   1.382       .  A
C1775      N1782   1.434       .  S
C1776      C1777   1.410       .  A
C1776      H1781   1.075       .  S
C1777      C1778   1.465       .  A
C1778      N1779   1.458       .  S
N1779      O1783   1.263       .  A
N1779      O1784   1.259       .  A
N1782      O1785   1.261       .  A
N1782      O1786   1.263       .  A
C1787      C1788   1.419       .  A
C1787      C1792   1.405       .  A
C1787      H1794   1.075       .  S
C1788      C3151   1.603       .  S
C1788      C1789   1.448       .  A
C1789      C1790   1.412       .  A
C1789      N1796   1.436       .  S
C1790      C1791   1.396       .  A
C1790      H1795   1.085       .  S
C1791      C1792   1.408       .  A
C1792      N1793   1.438       .  S
N1793      O1797   1.263       .  A
N1793      O1798   1.262       .  A
N1796      O1799   1.263       .  A
N1796      O1800   1.261       .  A
C1801      C2227   1.585   1_455  S
O1802     Zr1838   2.474       .  S
O1803     Zr1837   2.503       .  S
O1803      C1814   1.303       .  A
O1804     Zr1810   2.519       .  S
O1804      C1815   1.309       .  A
O1805     Zr2710   2.541       .  S
O1805      C1816   1.312       .  A
O1806     Zr1840   2.432       .  S
O1806      C1816   1.291       .  A
O1807     Zr2289   2.387       .  S
O1807      C1815   1.283       .  A
O1808     Zr2710   2.438       .  S
O1808      C1814   1.292       .  A
O1809     Zr1810   2.389       .  S
O1809      C1813   1.276       .  A
Zr1810     O2705   2.541   1_545  S
Zr1810     O2708   2.438       .  S
Zr1810     O2711   2.355   1_545  S
Zr1810     O1812   2.345       .  S
Zr1810     O2720   2.349       .  S
Zr1810     O1818   2.339       .  S
O1811     Zr2710   2.355       .  S
O1811     Zr1837   2.325       .  S
O1811     Zr1840   2.347       .  S
O1812     Zr2289   2.335       .  S
C1813      C2213   1.484       .  S
C1814      C2084   1.503       .  S
C1815      C2168   1.483       .  S
C1816      C2073   1.512       .  S
H1817      O1818   0.965       .  S
O1818     Zr2737   2.332   1_545  S
O1818     Zr2289   2.359       .  S
O1820     Zr2710   2.349       .  S
O1820     Zr1840   2.322       .  S
O1821     Zr2287   2.476   1_554  S
O1821      C1844   1.297       .  A
O1822     Zr1838   2.499       .  S
O1822      C2295   1.302       .  A
O1823     Zr1839   2.543       .  S
O1823      C1846   1.312       .  A
O1824     Zr1840   2.493       .  S
O1824      C1847   1.299       .  A
O1825      C1848   1.297       .  A
O1826     Zr1839   2.525       .  S
O1827     Zr2741   2.538   1_545  S
O1828     Zr1841   2.568       .  S
O1828      C1851   1.318   1_554  A
O1829     Zr1839   2.410       .  S
O1829      C1850   1.289       .  A
O1830      C2301   1.274       .  A
O1831     Zr2287   2.294   1_554  S
O1831      C2746   1.267       .  A
O1832     Zr1838   2.341       .  S
O1832      C1849   1.275       .  A
O1833     Zr2738   2.319       .  S
O1833      C1848   1.271       .  A
O1834     Zr1837   2.361       .  S
O1834      C1847   1.278       .  A
O1835      C1844   1.278       .  A
O1836     Zr1841   2.410       .  S
O1836      C2745   1.287       .  A
Zr1837     O2271   2.476       .  S
Zr1837     O2281   2.294       .  S
Zr1837     O2718   2.332       .  S
Zr1837     O2293   2.331       .  S
Zr1837     O1855   2.326       .  S
Zr1838     O2733   2.319       .  S
Zr1838     O2742   2.318   1_545  S
Zr1838     O2303   2.323       .  S
Zr1839     O2257   2.387   1_554  S
Zr1839     O2262   2.335   1_554  S
Zr1839     O2268   2.359   1_554  S
Zr1839     O2743   2.323   1_545  S
Zr1840     O1855   2.342       .  S
Zr1841     O2727   2.538       .  S
Zr1841     O2292   2.331   1_554  S
Zr1841     O2753   2.346       .  S
O1842     Zr2738   2.318       .  S
O1842     Zr2291   2.331       .  S
O1843     Zr2287   2.331   1_554  S
O1843     Zr2739   2.323       .  S
C1844      C2056   1.449       .  S
C1845      O2272   1.302   1_554  A
C1845      O2736   1.287   1_545  A
C1845      C2129   1.496       .  S
C1846      O2731   1.267   1_545  A
C1846      C2115   1.474       .  S
C1847      C2182   1.464       .  S
C1848      C2098   1.442       .  S
C1849      C2143   1.511       .  S
C1850      C2199   1.534       .  S
C1851      O2280   1.274       .  A
C1851      C2154   1.508       .  S
H1852      O1853   0.966       .  S
O1853     Zr2288   2.323   1_554  S
O1853     Zr2741   2.346   1_545  S
H1854      O2305   0.962   1_554  S
O1855      H2304   0.962       .  S
C1856      C2928   1.610   1_545  S
C1856      C2045   1.564       .  S
C1856      C2112   1.591       .  S
C1856      C2126   1.582       .  S
O1857     Zr1893   2.506       .  S
O1857      C1868   1.305       .  A
O1858     Zr1892   2.526       .  S
O1858      C1869   1.310       .  A
O1859     Zr1865   2.475       .  S
O1859      C1870   1.295       .  A
O1860     Zr1865   2.464       .  S
O1860      C1871   1.294       .  A
O1861     Zr1895   2.338       .  S
O1861      C1871   1.275       .  A
O1862     Zr1894   2.358       .  S
O1862      C1870   1.279       .  A
O1863     Zr1865   2.396       .  S
O1863      C1869   1.284       .  A
O1864     Zr1865   2.396       .  S
O1864      C1868   1.284       .  A
Zr1865     O1866   2.339       .  S
Zr1865     O1867   2.330       .  S
Zr1865     O1875   2.348       .  S
Zr1865     O1873   2.351       .  S
O1866     Zr1892   2.360       .  S
O1866     Zr1895   2.338       .  S
O1867     Zr1893   2.350       .  S
O1867     Zr1894   2.316       .  S
C1868      C2241   1.482       .  S
C1869      C1930   1.506       .  S
C1870      C2017   1.483       .  S
C1871      C2042   1.447       .  S
H1872      O1873   0.966       .  S
O1873     Zr1892   2.357       .  S
O1873     Zr1894   2.314       .  S
H1874      O1875   0.966       .  S
O1875     Zr1893   2.337       .  S
O1875     Zr1895   2.320       .  S
O1876     Zr1892   2.571       .  S
O1876      C1899   1.318       .  A
O1877     Zr1893   2.536       .  S
O1877      C1900   1.311       .  A
O1878     Zr1894   2.523       .  S
O1878      C1901   1.307       .  A
O1879     Zr1895   2.481       .  S
O1879      C1902   1.299       .  A
O1880     Zr1895   2.509       .  S
O1880      C1903   1.304       .  A
O1881     Zr1894   2.462       .  S
O1881      C1904   1.295       .  A
O1882     Zr1896   2.519       .  S
O1882      C1905   1.306       .  A
O1883     Zr1896   2.515       .  S
O1883      C1906   1.305       .  A
O1884     Zr1894   2.286       .  S
O1884      C1905   1.258       .  A
O1885     Zr1895   2.353       .  S
O1885      C1906   1.274       .  A
O1886     Zr1892   2.419       .  S
O1886      C1901   1.290       .  A
O1887     Zr1893   2.355       .  S
O1887      C1904   1.278       .  A
O1888     Zr1893   2.385       .  S
O1888      C1903   1.282       .  A
O1889     Zr1892   2.363       .  S
O1889      C1902   1.280       .  A
O1890     Zr1896   2.361       .  S
O1890      C1899   1.279       .  A
O1891     Zr1896   2.387       .  S
O1891      C1900   1.284       .  A
Zr1892     O1898   2.323       .  S
Zr1892     O1910   2.345       .  S
Zr1893     O1897   2.325       .  S
Zr1893     O1908   2.330       .  S
Zr1894     O1898   2.338       .  S
Zr1894     O1908   2.348       .  S
Zr1895     O1897   2.323       .  S
Zr1895     O1910   2.335       .  S
Zr1896     O1897   2.343       .  S
Zr1896     O1898   2.339       .  S
Zr1896     O1910   2.333       .  S
Zr1896     O1908   2.323       .  S
C1899      C2000   1.509       .  S
C1900      C1944   1.520       .  S
C1901      C2031   1.518       .  S
C1902      C1961   1.459       .  S
C1903      C1989   1.483       .  S
C1904      C1919   1.443       .  S
C1905      C1972   1.468       .  S
C1906      C2224   1.486       .  S
H1907      O1908   0.965       .  S
H1909      O1910   0.965       .  S
C1911      C1916   1.586       .  S
C1911      C2383   1.605       .  S
C1911      C2171   1.598       .  S
C1911      C2185   1.579       .  S
C1912      C2014   1.573       .  S
C1912      C2059   1.561       .  S
C1912      C2070   1.611       .  S
C1913      C1947   1.626       .  S
C1913      C2408   1.595       .  S
C1913      C2140   1.592       .  S
C1913      C2157   1.597       .  S
C1914      C1975   1.623       .  S
C1914      C2886   1.603       .  S
C1914      C2087   1.623       .  S
C1914      C2101   1.548       .  S
C1915      C1916   1.410       .  A
C1915      C1920   1.396       .  A
C1915      H1922   1.047       .  S
C1916      C1917   1.447       .  A
C1917      C1918   1.395       .  A
C1917      N1924   1.426       .  S
C1918      C1919   1.384       .  A
C1918      H1923   1.086       .  S
C1919      C1920   1.397       .  A
C1920      N1921   1.440       .  S
N1921      O1925   1.263       .  A
N1921      O1926   1.261       .  A
N1924      O1927   1.262       .  A
N1924      O1928   1.263       .  A
C1929      C1930   1.390       .  A
C1929      C1934   1.418       .  A
C1929      H1936   1.082       .  S
C1930      C1931   1.415       .  A
C1931      C1932   1.400       .  A
C1931      N1938   1.434       .  S
C1932      C1933   1.416   1_554  A
C1932      H1937   1.078       .  S
C1933      C2361   1.605       .  S
C1933      C1934   1.451   1_556  A
C1934      N2385   1.419   1_554  S
N1935      C2384   1.419       .  S
N1935      O1939   1.264       .  A
N1935      O1940   1.255       .  A
N1938      O1941   1.262       .  A
N1938      O1942   1.263       .  A
C1943      C1944   1.404       .  A
C1943      C1948   1.411       .  A
C1943      H1950   1.084       .  S
C1944      C1945   1.404       .  A
C1945      C1946   1.422       .  A
C1945      N1952   1.431       .  S
C1946      C1947   1.425       .  A
C1946      H1951   1.052       .  S
C1947      C1948   1.441       .  A
C1948      N1949   1.429       .  S
N1949      O1953   1.262       .  A
N1949      O1954   1.263       .  A
N1952      O1955   1.262       .  A
N1952      O1956   1.262       .  A
C1957      C1958   1.426       .  A
C1957      C1962   1.394       .  A
C1957      H1964   1.077       .  S
C1958      C2363   1.595   1_554  S
C1958      C1959   1.434       .  A
C1959      C1960   1.408       .  A
C1959      N1966   1.427       .  S
C1960      C1961   1.395       .  A
C1960      H1965   1.083       .  S
C1961      C1962   1.407       .  A
C1962      N1963   1.445       .  S
N1963      O1967   1.263       .  A
N1963      O1968   1.261       .  A
N1966      O1969   1.264       .  A
N1966      O1970   1.256       .  A
C1971      C1972   1.417       .  A
C1971      C1976   1.417       .  A
C1971      H1978   1.083       .  S
C1972      C1973   1.365       .  A
C1973      C1974   1.373       .  A
C1973      N1980   1.437       .  S
C1974      C1975   1.449       .  A
C1974      H1979   1.052       .  S
C1975      C1976   1.448       .  A
C1976      N1977   1.459       .  S
N1977      O1981   1.260       .  A
N1977      O1982   1.263       .  A
N1980      O1983   1.262       .  A
N1980      O1984   1.263       .  A
C1985      C1986   1.422       .  A
C1985      C1990   1.405       .  A
C1985      H1992   1.067       .  S
C1986      C2814   1.603   1_545  S
C1986      C1987   1.463       .  A
C1987      C1988   1.407       .  A
C1987      N1994   1.440       .  S
C1988      C1989   1.388       .  A
C1988      H1993   1.086       .  S
C1989      C1990   1.401       .  A
C1990      N1991   1.437       .  S
N1991      O1995   1.263       .  A
N1991      O1996   1.262       .  A
N1994      O1997   1.259       .  A
N1994      O1998   1.263       .  A
C1999      C2000   1.392       .  A
C1999      C2004   1.417       .  A
C1999      H2006   1.082       .  S
C2000      C2001   1.421       .  A
C2001      C2002   1.401       .  A
C2001      N2008   1.427       .  S
C2002      C2003   1.397       .  A
C2002      H2007   1.076       .  S
C2003      C2004   1.455       .  A
C2004      N2005   1.431       .  S
N2005      O2009   1.263       .  A
N2005      O2010   1.258       .  A
N2008      O2011   1.260       .  A
N2008      O2012   1.263       .  A
C2013      C2014   1.425       .  A
C2013      C2018   1.418       .  A
C2013      H2020   1.076       .  S
C2014      C2015   1.438       .  A
C2015      C2016   1.378       .  A
C2015      N2022   1.439       .  S
C2016      C2017   1.396       .  A
C2016      H2021   1.086       .  S
C2017      C2018   1.410       .  A
C2018      N2019   1.435       .  S
N2019      O2023   1.262       .  A
N2019      O2024   1.260       .  A
N2022      O2025   1.261       .  A
N2022      O2026   1.263       .  A
C2027      C2028   1.422       .  A
C2027      C2032   1.403       .  A
C2027      H2034   1.076       .  S
C2028      C2756   1.610       .  S
C2028      C2029   1.465       .  A
C2029      C2030   1.432       .  A
C2029      N2036   1.453       .  S
C2030      C2031   1.401       .  A
C2030      H2035   1.083       .  S
C2031      C2032   1.412       .  A
C2032      N2033   1.438       .  S
N2033      O2037   1.263       .  A
N2033      O2038   1.263       .  A
N2036      O2039   1.263       .  A
N2036      O2040   1.258       .  A
C2041      C2042   1.407       .  A
C2041      C2046   1.404       .  A
C2041      H2048   1.074       .  S
C2042      C2043   1.403       .  A
C2043      C2044   1.394       .  A
C2043      N2050   1.445       .  S
C2044      C2045   1.417       .  A
C2044      H2049   1.079       .  S
C2045      C2046   1.409       .  A
C2046      N2047   1.440       .  S
N2047      O2051   1.263       .  A
N2047      O2052   1.259       .  A
N2050      O2053   1.263       .  A
N2050      O2054   1.263       .  A
C2055      C2056   1.379       .  A
C2055      C2060   1.384       .  A
C2055      H2062   1.087       .  S
C2056      C2057   1.416       .  A
C2057      C2058   1.413       .  A
C2057      N2064   1.443       .  S
C2058      C2059   1.412       .  A
C2058      H2063   1.078       .  S
C2059      C2060   1.448       .  A
C2060      N2061   1.439       .  S
N2061      O2065   1.261       .  A
N2061      O2066   1.263       .  A
N2064      O2067   1.262       .  A
N2064      O2068   1.263       .  A
C2069      C2070   1.419       .  A
C2069      C2074   1.433       .  A
C2070      C2071   1.449       .  A
C2071      C2072   1.408       .  A
C2071      N2078   1.435       .  S
C2072      C2073   1.396       .  A
C2072      H2077   1.085       .  S
C2073      C2074   1.428       .  A
N2075      O2079   1.261       .  A
N2075      O2080   1.263       .  A
N2078      O2081   1.263       .  A
N2078      O2082   1.261       .  A
C2083      C2984   1.395   1_545  A
C2083      C2088   1.414       .  A
C2083      H2090   1.084       .  S
C2084      C2983   1.395       .  A
C2084      C2085   1.416       .  A
C2085      C2086   1.426       .  A
C2085      N2092   1.445       .  S
C2086      C2087   1.431       .  A
C2086      H2091   1.078       .  S
C2087      C2988   1.433       .  A
C2088      C2987   1.433   1_545  A
C2088      N2089   1.428       .  S
N2089      O2093   1.264       .  A
N2089      O2094   1.260       .  A
N2092      O2095   1.262       .  A
N2092      O2096   1.262       .  A
C2097      C2098   1.397       .  A
C2097      C2102   1.390       .  A
C2097      H2104   1.086       .  S
C2098      C2099   1.407       .  A
C2099      C2100   1.404       .  A
C2099      N2106   1.446       .  S
C2100      C2101   1.420       .  A
C2100      H2105   1.079       .  S
C2101      C2102   1.449       .  A
C2102      N3003   1.440       .  S
N2103      C3002   1.440       .  S
N2103      O2107   1.260       .  A
N2103      O2108   1.262       .  A
N2106      O2109   1.262       .  A
N2106      O2110   1.263       .  A
C2111      C2112   1.422       .  A
C2111      C2116   1.411       .  A
C2111      H2118   1.076       .  S
C2112      C3013   1.410   1_545  A
C2113      C3012   1.410       .  A
C2113      C2114   1.404       .  A
C2113      N2120   1.439       .  S
C2114      C3015   1.419       .  A
C2114      H2119   1.085       .  S
C2115      C3014   1.419   1_545  A
C2115      C2116   1.415       .  A
C2116      N2117   1.447       .  S
N2117      O2121   1.262       .  A
N2117      O2572   1.262       .  A
N2120      O2123   1.263       .  A
N2120      O2124   1.263       .  A
O2122      N2567   1.262       .  A
C2125      C2126   1.413   1_565  A
C2125      C2130   1.416   1_565  A
C2125      H2132   1.080       .  S
C2126      C2127   1.431       .  A
C2127      C2128   1.401       .  A
C2127      N2134   1.431       .  S
C2128      C2129   1.397       .  A
C2128      H2133   1.082       .  S
C2129      C2130   1.415       .  A
C2130      N2581   1.433   1_544  S
N2131      C2580   1.433   1_565  S
N2131      O3035   1.262       .  A
N2131      O2136   1.261   1_565  A
N2134      O3037   1.261       .  A
N2134      O2138   1.263       .  A
O2135      N3031   1.262       .  A
O2137      N3034   1.261       .  A
C2139      C2140   1.441       .  A
C2139      C2144   1.427       .  A
C2139      H2146   1.076       .  S
C2140      C2591   1.425       .  A
C2141      C2590   1.425       .  A
C2141      C2592   1.381       .  A
C2141      N2148   1.426       .  S
C2142      C2591   1.381       .  A
C2142      C2143   1.405       .  A
C2142      H2597   1.084       .  S
C2143      C2144   1.408       .  A
N2145      O2149   1.262       .  A
N2145      O2600   1.262       .  A
H2147      C2592   1.084       .  S
N2148      O2601   1.263       .  A
N2148      O2152   1.263       .  A
O2150      N2595   1.262       .  A
O2151      N2598   1.263       .  A
C2153      C2154   1.397   1_554  A
C2153      C2158   1.419       .  A
C2153      H2160   1.084       .  S
C2154      C2605   1.430       .  A
C2155      C2604   1.430       .  A
C2155      C2156   1.400       .  A
C2156      C2157   1.402       .  A
C2156      H2161   1.074       .  S
C2157      C2608   1.440       .  A
C2158      C2607   1.440   1_554  A
C2158      N2159   1.424       .  S
N2159      O2163   1.262       .  A
N2159      O2164   1.262   1_554  A
N2162      O2615   1.262       .  A
N2162      O2166   1.262       .  A
O2165      N2612   1.262       .  A
C2167      C2168   1.387       .  A
C2167      C2172   1.404       .  A
C2167      H2174   1.085       .  S
C2168      C2169   1.417       .  A
C2169      C2170   1.418       .  A
C2169      N2176   1.447       .  S
C2170      C2171   1.419       .  A
C2170      H2175   1.067       .  S
C2171      C2172   1.428       .  A
C2172      N2173   1.415       .  S
N2173      O2177   1.262       .  A
N2173      O2178   1.259       .  A
N2176      O2629   1.263       .  A
N2176      O2180   1.262       .  A
O2179      N2626   1.263       .  A
C2181      C2182   1.392       .  A
C2181      C2186   1.381       .  A
C2181      H2188   1.085       .  S
C2182      C2183   1.430       .  A
C2183      C2184   1.420       .  A
C2183      N2190   1.445       .  S
C2184      C2185   1.415       .  A
C2184      H2189   1.077       .  S
C2185      C2186   1.422       .  A
C2186      N2187   1.437       .  S
N2187      O2191   1.263       .  A
N2187      O2192   1.261       .  A
N2190      O2193   1.261       .  A
N2190      O2644   1.263       .  A
O2194      N2640   1.263       .  A
C2195      C2200   1.428       .  A
C2195      H2202   1.080       .  S
C2196      C2197   1.424       .  A
C2197      C2198   1.400       .  A
C2197      N2204   1.432       .  S
C2198      C2199   1.416       .  A
C2198      H2203   1.083       .  S
C2200      N2201   1.439       .  S
N2201      O2205   1.262       .  A
N2201      O2206   1.260       .  A
N2204      O2207   1.262       .  A
N2204      O2208   1.261       .  A
C2209      C2214   1.412       .  A
C2209      H2216   1.082       .  S
C2210      C2211   1.415       .  A
C2211      C2212   1.391       .  A
C2211      N2218   1.432       .  S
C2212      C2213   1.408       .  A
C2212      H2217   1.082       .  S
C2214      N2215   1.442       .  S
N2215      O2219   1.263       .  A
N2215      O2220   1.260       .  A
N2218      O2221   1.263       .  A
N2218      O2222   1.261       .  A
C2223      C2224   1.394       .  A
C2223      C2228   1.422       .  A
C2223      H2230   1.083       .  S
C2224      C2225   1.412       .  A
C2225      C2226   1.382       .  A
C2225      N2232   1.434       .  S
C2226      C2227   1.410       .  A
C2226      H2231   1.075       .  S
C2227      C2228   1.465       .  A
C2228      N2229   1.458       .  S
N2229      O2233   1.263       .  A
N2229      O2234   1.259   1_655  A
N2232      O2235   1.261       .  A
N2232      O2236   1.263       .  A
C2237      C2238   1.419       .  A
C2237      C2242   1.405       .  A
C2237      H2244   1.075       .  S
C2238      C2239   1.448       .  A
C2239      C2240   1.412       .  A
C2239      N2246   1.436       .  S
C2240      C2241   1.396       .  A
C2240      H2245   1.085       .  S
C2241      C2242   1.408       .  A
C2242      N2243   1.438       .  S
N2243      O2247   1.263       .  A
N2243      O2248   1.262       .  A
N2246      O2249   1.263       .  A
N2246      O2250   1.261       .  A
C2251      C2677   1.585   1_455  S
O2252     Zr2288   2.474       .  S
O2253     Zr2287   2.503       .  S
O2253      C2264   1.303       .  A
O2254     Zr2260   2.519       .  S
O2254      C2265   1.309       .  A
O2255     Zr3160   2.541       .  S
O2255      C2266   1.312       .  A
O2256     Zr2290   2.432       .  S
O2256      C2266   1.291       .  A
O2257      C2265   1.283       .  A
O2258     Zr3160   2.438       .  S
O2258      C2264   1.292       .  A
O2259     Zr2260   2.389       .  S
O2259      C2263   1.276       .  A
Zr2260     O3155   2.541   1_545  S
Zr2260     O3158   2.438       .  S
Zr2260     O3161   2.355   1_545  S
Zr2260     O2262   2.345       .  S
Zr2260     O3170   2.349       .  S
Zr2260     O2268   2.339       .  S
O2261     Zr3160   2.355       .  S
O2261     Zr2287   2.325       .  S
O2261     Zr2290   2.347       .  S
C2263      C2663   1.484       .  S
C2264      C2534   1.503       .  S
C2265      C2618   1.483       .  S
C2266      C2523   1.512       .  S
H2267      O2268   0.965       .  S
O2268     Zr3187   2.332   1_545  S
O2270     Zr3160   2.349       .  S
O2270     Zr2290   2.322       .  S
O2271      C2294   1.297       .  A
O2272     Zr2288   2.499       .  S
O2273     Zr2289   2.543       .  S
O2273      C2296   1.312       .  A
O2274     Zr2290   2.493       .  S
O2274      C2297   1.299       .  A
O2275      C2298   1.297       .  A
O2276     Zr2289   2.525       .  S
O2277     Zr3191   2.538   1_545  S
O2278     Zr2291   2.568       .  S
O2278      C2301   1.318       .  A
O2279     Zr2289   2.409       .  S
O2279      C2300   1.289       .  A
O2281      C3196   1.267       .  A
O2282     Zr2288   2.341       .  S
O2282      C2299   1.275       .  A
O2283     Zr3188   2.319       .  S
O2283      C2298   1.271       .  A
O2284     Zr2287   2.361       .  S
O2284      C2297   1.278       .  A
O2285      C2294   1.278       .  A
O2286     Zr2291   2.410       .  S
O2286      C3195   1.287       .  A
Zr2287     O3168   2.332       .  S
Zr2287     O2305   2.326       .  S
Zr2288     O3183   2.319       .  S
Zr2288     O3192   2.318   1_545  S
Zr2289     O3193   2.323   1_545  S
Zr2290     O2305   2.342       .  S
Zr2291     O3177   2.538       .  S
Zr2291     O3203   2.346       .  S
O2292     Zr3188   2.318       .  S
O2293     Zr3189   2.323       .  S
C2294      C2506   1.449       .  S
C2295      O3186   1.287   1_545  A
C2295      C2579   1.496       .  S
C2296      O3181   1.267   1_545  A
C2296      C2565   1.474       .  S
C2297      C2632   1.464       .  S
C2298      C2548   1.442       .  S
C2299      C2593   1.511       .  S
C2300      C2649   1.533       .  S
C2301      C2604   1.508       .  S
H2302      O2303   0.966       .  S
O2303     Zr3191   2.346   1_545  S
C2306      C3378   1.610   1_545  S
C2306      C2495   1.564       .  S
C2306      C2562   1.591       .  S
C2306      C2576   1.582       .  S
O2307     Zr2343   2.505       .  S
O2307      C2318   1.305       .  A
O2308     Zr2342   2.526       .  S
O2308      C2319   1.310       .  A
O2309     Zr2315   2.475       .  S
O2309      C2320   1.295       .  A
O2310     Zr2315   2.464       .  S
O2310      C2321   1.294       .  A
O2311     Zr2345   2.338       .  S
O2311      C2321   1.275       .  A
O2312     Zr2344   2.358       .  S
O2312      C2320   1.279       .  A
O2313     Zr2315   2.396       .  S
O2313      C2319   1.284       .  A
O2314     Zr2315   2.396       .  S
O2314      C2318   1.284       .  A
Zr2315     O2316   2.339       .  S
Zr2315     O2317   2.330       .  S
Zr2315     O2325   2.348       .  S
Zr2315     O2323   2.351       .  S
O2316     Zr2342   2.360       .  S
O2316     Zr2345   2.338       .  S
O2317     Zr2343   2.350       .  S
O2317     Zr2344   2.316       .  S
C2318      C2691   1.482       .  S
C2319      C2380   1.506       .  S
C2320      C2467   1.483       .  S
C2321      C2492   1.447       .  S
H2322      O2323   0.966       .  S
O2323     Zr2342   2.357       .  S
O2323     Zr2344   2.314       .  S
H2324      O2325   0.966       .  S
O2325     Zr2343   2.337       .  S
O2325     Zr2345   2.320       .  S
O2326     Zr2342   2.571       .  S
O2326      C2349   1.318       .  A
O2327     Zr2343   2.536       .  S
O2327      C2350   1.311       .  A
O2328     Zr2344   2.523       .  S
O2328      C2351   1.307       .  A
O2329     Zr2345   2.481       .  S
O2329      C2352   1.299       .  A
O2330     Zr2345   2.509       .  S
O2330      C2353   1.304       .  A
O2331     Zr2344   2.462       .  S
O2331      C2354   1.295       .  A
O2332     Zr2346   2.519       .  S
O2332      C2355   1.306       .  A
O2333     Zr2346   2.515       .  S
O2333      C2356   1.305       .  A
O2334     Zr2344   2.286       .  S
O2334      C2355   1.258       .  A
O2335     Zr2345   2.353       .  S
O2335      C2356   1.274       .  A
O2336     Zr2342   2.419       .  S
O2336      C2351   1.290       .  A
O2337     Zr2343   2.355       .  S
O2337      C2354   1.278       .  A
O2338     Zr2343   2.385       .  S
O2338      C2353   1.282       .  A
O2339     Zr2342   2.363       .  S
O2339      C2352   1.280       .  A
O2340     Zr2346   2.361       .  S
O2340      C2349   1.279       .  A
O2341     Zr2346   2.388       .  S
O2341      C2350   1.284       .  A
Zr2342     O2348   2.323       .  S
Zr2342     O2360   2.345       .  S
Zr2343     O2347   2.325       .  S
Zr2343     O2358   2.330       .  S
Zr2344     O2348   2.338       .  S
Zr2344     O2358   2.348       .  S
Zr2345     O2347   2.323       .  S
Zr2345     O2360   2.335       .  S
Zr2346     O2347   2.343       .  S
Zr2346     O2348   2.339       .  S
Zr2346     O2360   2.333       .  S
Zr2346     O2358   2.323       .  S
C2349      C2450   1.509       .  S
C2350      C2394   1.520       .  S
C2351      C2481   1.518       .  S
C2352      C2411   1.459       .  S
C2353      C2439   1.483       .  S
C2354      C2369   1.443       .  S
C2355      C2422   1.468       .  S
C2356      C2674   1.486       .  S
H2357      O2358   0.965       .  S
H2359      O2360   0.965       .  S
C2361      C2366   1.586       .  S
C2361      C2621   1.598       .  S
C2361      C2635   1.579       .  S
C2362      C2464   1.573       .  S
C2362      C2509   1.561       .  S
C2362      C2520   1.610       .  S
C2363      C2397   1.626       .  S
C2363      C2590   1.592       .  S
C2363      C2607   1.597       .  S
C2364      C2425   1.623       .  S
C2364      C3336   1.603       .  S
C2364      C2537   1.623       .  S
C2364      C2551   1.548       .  S
C2365      C2366   1.410       .  A
C2365      C2370   1.396       .  A
C2365      H2372   1.047       .  S
C2366      C2367   1.447       .  A
C2367      C2368   1.395       .  A
C2367      N2374   1.426       .  S
C2368      C2369   1.384       .  A
C2368      H2373   1.086       .  S
C2369      C2370   1.397       .  A
C2370      N2371   1.440       .  S
N2371      O2375   1.263       .  A
N2371      O2376   1.261       .  A
N2374      O2377   1.262       .  A
N2374      O2378   1.263       .  A
C2379      C2380   1.390       .  A
C2379      C2384   1.418       .  A
C2379      H2386   1.082       .  S
C2380      C2381   1.415       .  A
C2381      C2382   1.400       .  A
C2381      N2388   1.434       .  S
C2382      C2383   1.416       .  A
C2382      H2387   1.078       .  S
C2383      C2384   1.451       .  A
N2385      O2389   1.264       .  A
N2385      O2390   1.255       .  A
N2388      O2391   1.262       .  A
N2388      O2392   1.263       .  A
C2393      C2394   1.404       .  A
C2393      C2398   1.411       .  A
C2393      H2400   1.084       .  S
C2394      C2395   1.404       .  A
C2395      C2396   1.422       .  A
C2395      N2402   1.431       .  S
C2396      C2397   1.425       .  A
C2396      H2401   1.052       .  S
C2397      C2398   1.441       .  A
C2398      N2399   1.429       .  S
N2399      O2403   1.262       .  A
N2399      O2404   1.263       .  A
N2402      O2405   1.262       .  A
N2402      O2406   1.262       .  A
C2407      C2408   1.426       .  A
C2407      C2412   1.394       .  A
C2407      H2414   1.077       .  S
C2408      C2409   1.434       .  A
C2409      C2410   1.408       .  A
C2409      N2416   1.427       .  S
C2410      C2411   1.395       .  A
C2410      H2415   1.083       .  S
C2411      C2412   1.407       .  A
C2412      N2413   1.445       .  S
N2413      O2417   1.263       .  A
N2413      O2418   1.261       .  A
N2416      O2419   1.264       .  A
N2416      O2420   1.256       .  A
C2421      C2422   1.417       .  A
C2421      C2426   1.417       .  A
C2421      H2428   1.083       .  S
C2422      C2423   1.366       .  A
C2423      C2424   1.373       .  A
C2423      N2430   1.437       .  S
C2424      C2425   1.449       .  A
C2424      H2429   1.052       .  S
C2425      C2426   1.448       .  A
C2426      N2427   1.459       .  S
N2427      O2431   1.260       .  A
N2427      O2432   1.263       .  A
N2430      O2433   1.262       .  A
N2430      O2434   1.263       .  A
C2435      C2436   1.422       .  A
C2435      C2440   1.405       .  A
C2435      H2442   1.067       .  S
C2436      C3264   1.603   1_545  S
C2436      C2437   1.463       .  A
C2437      C2438   1.407       .  A
C2437      N2444   1.440       .  S
C2438      C2439   1.388       .  A
C2438      H2443   1.086       .  S
C2439      C2440   1.401       .  A
C2440      N2441   1.437       .  S
N2441      O2445   1.263       .  A
N2441      O2446   1.262       .  A
N2444      O2447   1.259       .  A
N2444      O2448   1.263       .  A
C2449      C2450   1.392       .  A
C2449      C2454   1.417       .  A
C2449      H2456   1.082       .  S
C2450      C2451   1.421       .  A
C2451      C2452   1.401       .  A
C2451      N2458   1.427       .  S
C2452      C2453   1.397       .  A
C2452      H2457   1.076       .  S
C2453      C2454   1.455       .  A
C2454      N2455   1.431       .  S
N2455      O2459   1.263       .  A
N2455      O2460   1.258       .  A
N2458      O2461   1.260       .  A
N2458      O2462   1.263       .  A
C2463      C2464   1.425       .  A
C2463      C2468   1.418       .  A
C2463      H2470   1.076       .  S
C2464      C2465   1.438       .  A
C2465      C2466   1.378       .  A
C2465      N2472   1.439       .  S
C2466      C2467   1.396       .  A
C2466      H2471   1.086       .  S
C2467      C2468   1.410       .  A
C2468      N2469   1.435       .  S
N2469      O2473   1.262       .  A
N2469      O2474   1.260       .  A
N2472      O2475   1.261       .  A
N2472      O2476   1.263       .  A
C2477      C2478   1.422       .  A
C2477      C2482   1.403       .  A
C2477      H2484   1.076       .  S
C2478      C3206   1.610       .  S
C2478      C2479   1.465       .  A
C2479      C2480   1.432       .  A
C2479      N2486   1.453       .  S
C2480      C2481   1.401       .  A
C2480      H2485   1.083       .  S
C2481      C2482   1.412       .  A
C2482      N2483   1.438       .  S
N2483      O2487   1.263       .  A
N2483      O2488   1.263       .  A
N2486      O2489   1.263       .  A
N2486      O2490   1.258       .  A
C2491      C2492   1.407       .  A
C2491      C2496   1.404       .  A
C2491      H2498   1.074       .  S
C2492      C2493   1.403       .  A
C2493      C2494   1.394       .  A
C2493      N2500   1.445       .  S
C2494      C2495   1.417       .  A
C2494      H2499   1.079       .  S
C2495      C2496   1.409       .  A
C2496      N2497   1.440       .  S
N2497      O2501   1.263       .  A
N2497      O2502   1.259       .  A
N2500      O2503   1.263       .  A
N2500      O2504   1.263       .  A
C2505      C2506   1.379       .  A
C2505      C2510   1.384       .  A
C2505      H2512   1.087       .  S
C2506      C2507   1.416       .  A
C2507      C2508   1.413       .  A
C2507      N2514   1.443       .  S
C2508      C2509   1.412       .  A
C2508      H2513   1.078       .  S
C2509      C2510   1.448       .  A
C2510      N2511   1.439       .  S
N2511      O2515   1.261       .  A
N2511      O2516   1.263       .  A
N2514      O2517   1.262       .  A
N2514      O2518   1.263       .  A
C2519      C2520   1.419       .  A
C2519      C2524   1.433       .  A
C2520      C2521   1.449       .  A
C2521      C2522   1.408       .  A
C2521      N2528   1.435       .  S
C2522      C2523   1.396       .  A
C2522      H2527   1.085       .  S
C2523      C2524   1.428       .  A
N2525      O2529   1.261       .  A
N2525      O2530   1.263       .  A
N2528      O2531   1.263       .  A
N2528      O2532   1.261       .  A
C2533      C3434   1.395   1_545  A
C2533      C2538   1.414       .  A
C2533      H2540   1.084       .  S
C2534      C3433   1.395       .  A
C2534      C2535   1.416       .  A
C2535      C2536   1.426       .  A
C2535      N2542   1.445       .  S
C2536      C2537   1.431       .  A
C2536      H2541   1.078       .  S
C2537      C3438   1.433       .  A
C2538      C3437   1.433   1_545  A
C2538      N2539   1.428       .  S
N2539      O2543   1.264       .  A
N2539      O2544   1.260       .  A
N2542      O2545   1.262       .  A
N2542      O2546   1.262       .  A
C2547      C2548   1.397       .  A
C2547      C2552   1.390       .  A
C2547      H2554   1.086       .  S
C2548      C2549   1.407       .  A
C2549      C2550   1.404       .  A
C2549      N2556   1.446       .  S
C2550      C2551   1.420       .  A
C2550      H2555   1.079       .  S
C2551      C2552   1.449       .  A
C2552      N3453   1.440       .  S
N2553      C3452   1.440       .  S
N2553      O2557   1.260       .  A
N2553      O2558   1.262       .  A
N2556      O2559   1.262       .  A
N2556      O2560   1.263       .  A
C2561      C2562   1.422       .  A
C2561      C2566   1.411       .  A
C2561      H2568   1.076       .  S
C2562      C3463   1.410   1_545  A
C2563      C3462   1.410       .  A
C2563      C2564   1.404       .  A
C2563      N2570   1.439       .  S
C2564      C3465   1.419       .  A
C2564      H2569   1.085       .  S
C2565      C3464   1.419   1_545  A
C2565      C2566   1.415       .  A
C2566      N2567   1.447       .  S
N2567      O2571   1.262       .  A
N2570      O2573   1.263       .  A
N2570      O2574   1.263       .  A
C2575      C2576   1.413   1_565  A
C2575      C2580   1.416   1_565  A
C2575      H2582   1.080       .  S
C2576      C2577   1.431       .  A
C2577      C2578   1.401       .  A
C2577      N2584   1.431       .  S
C2578      C2579   1.397       .  A
C2578      H2583   1.082       .  S
C2579      C2580   1.415       .  A
N2581      O3485   1.262       .  A
N2581      O2586   1.261   1_565  A
N2584      O3487   1.261       .  A
N2584      O2588   1.263       .  A
O2585      N3481   1.262       .  A
O2587      N3484   1.261       .  A
C2589      C2590   1.441   1_554  A
C2589      C2594   1.427       .  A
C2589      H2596   1.076       .  S
C2591      N2598   1.426       .  S
C2592      C2593   1.405       .  A
C2593      C2594   1.408   1_556  A
N2595      O2599   1.262       .  A
N2598      O2602   1.263       .  A
C2603      C2604   1.397       .  A
C2603      C2608   1.419       .  A
C2603      H2610   1.084       .  S
C2605      C2606   1.400       .  A
C2606      C2607   1.402       .  A
C2606      H2611   1.074       .  S
C2608      N2609   1.424       .  S
N2609      O2613   1.262       .  A
N2609      O2614   1.262       .  A
N2612      O2616   1.262       .  A
C2617      C2618   1.387       .  A
C2617      C2622   1.404       .  A
C2617      H2624   1.085       .  S
C2618      C2619   1.417       .  A
C2619      C2620   1.418       .  A
C2619      N2626   1.447       .  S
C2620      C2621   1.419       .  A
C2620      H2625   1.067       .  S
C2621      C2622   1.428       .  A
C2622      N2623   1.415       .  S
N2623      O2627   1.262       .  A
N2623      O2628   1.259       .  A
N2626      O2630   1.262       .  A
C2631      C2632   1.392       .  A
C2631      C2636   1.381       .  A
C2631      H2638   1.085       .  S
C2632      C2633   1.430       .  A
C2633      C2634   1.420       .  A
C2633      N2640   1.445   1_556  S
C2634      C2635   1.415       .  A
C2634      H2639   1.077   1_556  S
C2635      C2636   1.422       .  A
C2636      N2637   1.437       .  S
N2637      O2641   1.263       .  A
N2637      O2642   1.261   1_556  A
N2640      O2643   1.261       .  A
C2645      C2650   1.428       .  A
C2645      H2652   1.080       .  S
C2646      C2647   1.424       .  A
C2647      C2648   1.400       .  A
C2647      N2654   1.432       .  S
C2648      C2649   1.416       .  A
C2648      H2653   1.083       .  S
C2650      N2651   1.439       .  S
N2651      O2655   1.262       .  A
N2651      O2656   1.260       .  A
N2654      O2657   1.262       .  A
N2654      O2658   1.261       .  A
C2659      C2664   1.412       .  A
C2659      H2666   1.082       .  S
C2660      C2661   1.415       .  A
C2661      C2662   1.391       .  A
C2661      N2668   1.432       .  S
C2662      C2663   1.408       .  A
C2662      H2667   1.082       .  S
C2664      N2665   1.442       .  S
N2665      O2669   1.263       .  A
N2665      O2670   1.260       .  A
N2668      O2671   1.263       .  A
N2668      O2672   1.261       .  A
C2673      C2674   1.394       .  A
C2673      C2678   1.422       .  A
C2673      H2680   1.083       .  S
C2674      C2675   1.412       .  A
C2675      C2676   1.382       .  A
C2675      N2682   1.434       .  S
C2676      C2677   1.410       .  A
C2676      H2681   1.075       .  S
C2677      C2678   1.465       .  A
C2678      N2679   1.458       .  S
N2679      O2683   1.263       .  A
N2679      O2684   1.259   1_655  A
N2682      O2685   1.261       .  A
N2682      O2686   1.263       .  A
C2687      C2688   1.419       .  A
C2687      C2692   1.405       .  A
C2687      H2694   1.075       .  S
C2688      C2689   1.448       .  A
C2689      C2690   1.412       .  A
C2689      N2696   1.436       .  S
C2690      C2691   1.396       .  A
C2690      H2695   1.085       .  S
C2691      C2692   1.408       .  A
C2692      N2693   1.438       .  S
N2693      O2697   1.263       .  A
N2693      O2698   1.262       .  A
N2696      O2699   1.263       .  A
N2696      O2700   1.261       .  A
C2701      C3127   1.585   1_455  S
O2702     Zr2738   2.474       .  S
O2703     Zr2737   2.503       .  S
O2703      C2714   1.303       .  A
O2704     Zr2710   2.519       .  S
O2704      C2715   1.309       .  A
O2705      C2716   1.312       .  A
O2706     Zr2740   2.432       .  S
O2706      C2716   1.291       .  A
O2707     Zr3189   2.387       .  S
O2707      C2715   1.283       .  A
O2708      C2714   1.292   1_545  A
O2709     Zr2710   2.389       .  S
O2709      C2713   1.276       .  A
Zr2710     O2712   2.345       .  S
Zr2710     O2718   2.339       .  S
O2711     Zr2737   2.325       .  S
O2711     Zr2740   2.347       .  S
O2712     Zr3189   2.335       .  S
C2713      C3113   1.484       .  S
C2714      C2984   1.503       .  S
C2715      C3068   1.483       .  S
C2716      C2973   1.512       .  S
H2717      O2718   0.965       .  S
O2718     Zr3189   2.359       .  S
O2720     Zr2740   2.322   1_545  S
O2721     Zr3187   2.476   1_554  S
O2721      C2744   1.297       .  A
O2722     Zr2738   2.500       .  S
O2722      C3195   1.302       .  A
O2723     Zr2739   2.543       .  S
O2723      C2746   1.312       .  A
O2724     Zr2740   2.493       .  S
O2724      C2747   1.299       .  A
O2725      C2748   1.297       .  A
O2726     Zr2739   2.525       .  S
O2728     Zr2741   2.568       .  S
O2728      C2751   1.318   1_554  A
O2729     Zr2739   2.410       .  S
O2729      C2750   1.289       .  A
O2730      C3201   1.274       .  A
O2731     Zr3187   2.294   1_554  S
O2732     Zr2738   2.341       .  S
O2732      C2749   1.275       .  A
O2733      C2748   1.271   1_545  A
O2734     Zr2737   2.361       .  S
O2734      C2747   1.278       .  A
O2735      C2744   1.278       .  A
O2736     Zr2741   2.410       .  S
Zr2737     O3171   2.476       .  S
Zr2737     O3181   2.294       .  S
Zr2737     O3193   2.331       .  S
Zr2737     O2755   2.326       .  S
Zr2738     O3203   2.323       .  S
Zr2739     O3157   2.387   1_554  S
Zr2739     O3162   2.335   1_554  S
Zr2739     O3168   2.359   1_554  S
Zr2740     O2755   2.342       .  S
Zr2741     O3192   2.331   1_554  S
O2742     Zr3191   2.331       .  S
O2743     Zr3187   2.331   1_554  S
C2744      C2956   1.449       .  S
C2745      O3172   1.302   1_554  A
C2745      C3029   1.496       .  S
C2746      C3015   1.474       .  S
C2747      C3082   1.464       .  S
C2748      C2998   1.442       .  S
C2749      C3043   1.511       .  S
C2750      C3099   1.534       .  S
C2751      O3180   1.274       .  A
C2751      C3054   1.508       .  S
H2752      O2753   0.966       .  S
O2753     Zr3188   2.323   1_554  S
H2754      O3205   0.962   1_554  S
O2755      H3204   0.962       .  S
C2756      C2945   1.564       .  S
C2756      C3012   1.591       .  S
C2756      C3026   1.582       .  S
O2757     Zr2793   2.505       .  S
O2757      C2768   1.305       .  A
O2758     Zr2792   2.526       .  S
O2758      C2769   1.310       .  A
O2759     Zr2765   2.475       .  S
O2759      C2770   1.295       .  A
O2760     Zr2765   2.464       .  S
O2760      C2771   1.294       .  A
O2761     Zr2795   2.338       .  S
O2761      C2771   1.275       .  A
O2762     Zr2794   2.358       .  S
O2762      C2770   1.279       .  A
O2763     Zr2765   2.396       .  S
O2763      C2769   1.284       .  A
O2764     Zr2765   2.396       .  S
O2764      C2768   1.284       .  A
Zr2765     O2766   2.339       .  S
Zr2765     O2767   2.330       .  S
Zr2765     O2775   2.348       .  S
Zr2765     O2773   2.351       .  S
O2766     Zr2792   2.360       .  S
O2766     Zr2795   2.338       .  S
O2767     Zr2793   2.350       .  S
O2767     Zr2794   2.316       .  S
C2768      C3141   1.482       .  S
C2769      C2830   1.506       .  S
C2770      C2917   1.483       .  S
C2771      C2942   1.447       .  S
H2772      O2773   0.966       .  S
O2773     Zr2792   2.357       .  S
O2773     Zr2794   2.314       .  S
H2774      O2775   0.966       .  S
O2775     Zr2793   2.337       .  S
O2775     Zr2795   2.320       .  S
O2776     Zr2792   2.571       .  S
O2776      C2799   1.318       .  A
O2777     Zr2793   2.536       .  S
O2777      C2800   1.311       .  A
O2778     Zr2794   2.523       .  S
O2778      C2801   1.307       .  A
O2779     Zr2795   2.481       .  S
O2779      C2802   1.299       .  A
O2780     Zr2795   2.509       .  S
O2780      C2803   1.304       .  A
O2781     Zr2794   2.462       .  S
O2781      C2804   1.295       .  A
O2782     Zr2796   2.519       .  S
O2782      C2805   1.306       .  A
O2783     Zr2796   2.515       .  S
O2783      C2806   1.305       .  A
O2784     Zr2794   2.286       .  S
O2784      C2805   1.258       .  A
O2785     Zr2795   2.353       .  S
O2785      C2806   1.274       .  A
O2786     Zr2792   2.419       .  S
O2786      C2801   1.290       .  A
O2787     Zr2793   2.355       .  S
O2787      C2804   1.278       .  A
O2788     Zr2793   2.385       .  S
O2788      C2803   1.282       .  A
O2789     Zr2792   2.363       .  S
O2789      C2802   1.280       .  A
O2790     Zr2796   2.361       .  S
O2790      C2799   1.279       .  A
O2791     Zr2796   2.387       .  S
O2791      C2800   1.284       .  A
Zr2792     O2798   2.323       .  S
Zr2792     O2810   2.345       .  S
Zr2793     O2797   2.325       .  S
Zr2793     O2808   2.330       .  S
Zr2794     O2798   2.338       .  S
Zr2794     O2808   2.348       .  S
Zr2795     O2797   2.323       .  S
Zr2795     O2810   2.335       .  S
Zr2796     O2797   2.343       .  S
Zr2796     O2798   2.339       .  S
Zr2796     O2810   2.333       .  S
Zr2796     O2808   2.323       .  S
C2799      C2900   1.509       .  S
C2800      C2844   1.520       .  S
C2801      C2931   1.518       .  S
C2802      C2861   1.459       .  S
C2803      C2889   1.483       .  S
C2804      C2819   1.443       .  S
C2805      C2872   1.468       .  S
C2806      C3124   1.486       .  S
H2807      O2808   0.965       .  S
H2809      O2810   0.965       .  S
C2811      C2816   1.586       .  S
C2811      C3283   1.605       .  S
C2811      C3071   1.598       .  S
C2811      C3085   1.579       .  S
C2812      C2914   1.573       .  S
C2812      C2959   1.561       .  S
C2812      C2970   1.611       .  S
C2813      C2847   1.626       .  S
C2813      C3308   1.595       .  S
C2813      C3040   1.592       .  S
C2813      C3057   1.597       .  S
C2814      C2875   1.623       .  S
C2814      C2987   1.623       .  S
C2814      C3001   1.548       .  S
C2815      C2816   1.410       .  A
C2815      C2820   1.396       .  A
C2815      H2822   1.047       .  S
C2816      C2817   1.447       .  A
C2817      C2818   1.395       .  A
C2817      N2824   1.426       .  S
C2818      C2819   1.384       .  A
C2818      H2823   1.086       .  S
C2819      C2820   1.397       .  A
C2820      N2821   1.440       .  S
N2821      O2825   1.263       .  A
N2821      O2826   1.261       .  A
N2824      O2827   1.262       .  A
N2824      O2828   1.263       .  A
C2829      C2830   1.390       .  A
C2829      C2834   1.418       .  A
C2829      H2836   1.082       .  S
C2830      C2831   1.415       .  A
C2831      C2832   1.400       .  A
C2831      N2838   1.434       .  S
C2832      C2833   1.416   1_554  A
C2832      H2837   1.078       .  S
C2833      C3261   1.605       .  S
C2833      C2834   1.451   1_556  A
C2834      N3285   1.419   1_554  S
N2835      C3284   1.419       .  S
N2835      O2839   1.264       .  A
N2835      O2840   1.255       .  A
N2838      O2841   1.262       .  A
N2838      O2842   1.263       .  A
C2843      C2844   1.404       .  A
C2843      C2848   1.411       .  A
C2843      H2850   1.084       .  S
C2844      C2845   1.404       .  A
C2845      C2846   1.422       .  A
C2845      N2852   1.431       .  S
C2846      C2847   1.425       .  A
C2846      H2851   1.052       .  S
C2847      C2848   1.441       .  A
C2848      N2849   1.429       .  S
N2849      O2853   1.262       .  A
N2849      O2854   1.263       .  A
N2852      O2855   1.262       .  A
N2852      O2856   1.262       .  A
C2857      C2858   1.426       .  A
C2857      C2862   1.394       .  A
C2857      H2864   1.077       .  S
C2858      C3263   1.595   1_554  S
C2858      C2859   1.434       .  A
C2859      C2860   1.408       .  A
C2859      N2866   1.427       .  S
C2860      C2861   1.395       .  A
C2860      H2865   1.083       .  S
C2861      C2862   1.407       .  A
C2862      N2863   1.445       .  S
N2863      O2867   1.263       .  A
N2863      O2868   1.261       .  A
N2866      O2869   1.264       .  A
N2866      O2870   1.256       .  A
C2871      C2872   1.417       .  A
C2871      C2876   1.417       .  A
C2871      H2878   1.083       .  S
C2872      C2873   1.366       .  A
C2873      C2874   1.373       .  A
C2873      N2880   1.437       .  S
C2874      C2875   1.449       .  A
C2874      H2879   1.052       .  S
C2875      C2876   1.448       .  A
C2876      N2877   1.459       .  S
N2877      O2881   1.260       .  A
N2877      O2882   1.263       .  A
N2880      O2883   1.262       .  A
N2880      O2884   1.263       .  A
C2885      C2886   1.422       .  A
C2885      C2890   1.405       .  A
C2885      H2892   1.067       .  S
C2886      C2887   1.463       .  A
C2887      C2888   1.407       .  A
C2887      N2894   1.440       .  S
C2888      C2889   1.388       .  A
C2888      H2893   1.086       .  S
C2889      C2890   1.402       .  A
C2890      N2891   1.437       .  S
N2891      O2895   1.263       .  A
N2891      O2896   1.262       .  A
N2894      O2897   1.259       .  A
N2894      O2898   1.263       .  A
C2899      C2900   1.392       .  A
C2899      C2904   1.417       .  A
C2899      H2906   1.082       .  S
C2900      C2901   1.421       .  A
C2901      C2902   1.401       .  A
C2901      N2908   1.427       .  S
C2902      C2903   1.398       .  A
C2902      H2907   1.076       .  S
C2903      C2904   1.455       .  A
C2904      N2905   1.431       .  S
N2905      O2909   1.263       .  A
N2905      O2910   1.258       .  A
N2908      O2911   1.260       .  A
N2908      O2912   1.263       .  A
C2913      C2914   1.425       .  A
C2913      C2918   1.418       .  A
C2913      H2920   1.076       .  S
C2914      C2915   1.438       .  A
C2915      C2916   1.378       .  A
C2915      N2922   1.439       .  S
C2916      C2917   1.396       .  A
C2916      H2921   1.086       .  S
C2917      C2918   1.410       .  A
C2918      N2919   1.435       .  S
N2919      O2923   1.262       .  A
N2919      O2924   1.260       .  A
N2922      O2925   1.261       .  A
N2922      O2926   1.263       .  A
C2927      C2928   1.422       .  A
C2927      C2932   1.403       .  A
C2927      H2934   1.076       .  S
C2928      C2929   1.465       .  A
C2929      C2930   1.432       .  A
C2929      N2936   1.453       .  S
C2930      C2931   1.401       .  A
C2930      H2935   1.083       .  S
C2931      C2932   1.412       .  A
C2932      N2933   1.438       .  S
N2933      O2937   1.263       .  A
N2933      O2938   1.263       .  A
N2936      O2939   1.263       .  A
N2936      O2940   1.258   1_565  A
C2941      C2942   1.407       .  A
C2941      C2946   1.404       .  A
C2941      H2948   1.074       .  S
C2942      C2943   1.403       .  A
C2943      C2944   1.394       .  A
C2943      N2950   1.445       .  S
C2944      C2945   1.417       .  A
C2944      H2949   1.079       .  S
C2945      C2946   1.409       .  A
C2946      N2947   1.440       .  S
N2947      O2951   1.263       .  A
N2947      O2952   1.259       .  A
N2950      O2953   1.263       .  A
N2950      O2954   1.263       .  A
C2955      C2956   1.379       .  A
C2955      C2960   1.384       .  A
C2955      H2962   1.087       .  S
C2956      C2957   1.416       .  A
C2957      C2958   1.413       .  A
C2957      N2964   1.443       .  S
C2958      C2959   1.412       .  A
C2958      H2963   1.078       .  S
C2959      C2960   1.448       .  A
C2960      N2961   1.439       .  S
N2961      O2965   1.261       .  A
N2961      O2966   1.263       .  A
N2964      O2967   1.262   1_565  A
N2964      O2968   1.263   1_565  A
C2969      C2970   1.419       .  A
C2969      C2974   1.433       .  A
C2970      C2971   1.449       .  A
C2971      C2972   1.408       .  A
C2971      N2978   1.435       .  S
C2972      C2973   1.396       .  A
C2972      H2977   1.085       .  S
C2973      C2974   1.428       .  A
N2975      O2979   1.261       .  A
N2975      O2980   1.263       .  A
N2978      O2981   1.263       .  A
N2978      O2982   1.261       .  A
C2983      C2988   1.414       .  A
C2983      H2990   1.084       .  S
C2984      C2985   1.416       .  A
C2985      C2986   1.426       .  A
C2985      N2992   1.445       .  S
C2986      C2987   1.431       .  A
C2986      H2991   1.078       .  S
C2988      N2989   1.428       .  S
N2989      O2993   1.264       .  A
N2989      O2994   1.260       .  A
N2992      O2995   1.262       .  A
N2992      O2996   1.262       .  A
C2997      C2998   1.397       .  A
C2997      C3002   1.390   1_565  A
C2997      H3004   1.086   1_565  S
C2998      C2999   1.407       .  A
C2999      C3000   1.404       .  A
C2999      N3006   1.446       .  S
C3000      C3001   1.420       .  A
C3000      H3005   1.079       .  S
C3001      C3002   1.449   1_565  A
N3003      O3007   1.260       .  A
N3003      O3008   1.262       .  A
N3006      O3009   1.262       .  A
N3006      O3010   1.263       .  A
C3011      C3012   1.422       .  A
C3011      C3016   1.411       .  A
C3011      H3018   1.076       .  S
C3013      C3014   1.404       .  A
C3013      N3020   1.439       .  S
C3014      H3019   1.085       .  S
C3015      C3016   1.415       .  A
C3016      N3017   1.447       .  S
N3017      O3021   1.262       .  A
N3017      O3472   1.262       .  A
N3020      O3023   1.263       .  A
N3020      O3024   1.263       .  A
O3022      N3467   1.262       .  A
C3025      C3026   1.413       .  A
C3025      C3030   1.416       .  A
C3025      H3032   1.080       .  S
C3026      C3027   1.431       .  A
C3027      C3028   1.401       .  A
C3027      N3034   1.431       .  S
C3028      C3029   1.397       .  A
C3028      H3033   1.082       .  S
C3029      C3030   1.415       .  A
C3030      N3481   1.433   1_554  S
N3031      C3480   1.433       .  S
N3031      O3036   1.261       .  A
N3034      O3038   1.263       .  A
C3039      C3040   1.441       .  A
C3039      C3044   1.427       .  A
C3039      H3046   1.076       .  S
C3040      C3491   1.425       .  A
C3041      C3490   1.425       .  A
C3041      C3492   1.381       .  A
C3041      N3048   1.426       .  S
C3042      C3491   1.381       .  A
C3042      C3043   1.405       .  A
C3042      H3497   1.084       .  S
C3043      C3044   1.408       .  A
N3045      O3049   1.262       .  A
N3045      O3500   1.262       .  A
H3047      C3492   1.084       .  S
N3048      O3501   1.263       .  A
N3048      O3052   1.263       .  A
O3050      N3495   1.262       .  A
O3051      N3498   1.263       .  A
C3053      C3054   1.397   1_554  A
C3053      C3058   1.419       .  A
C3053      H3060   1.084       .  S
C3054      C3505   1.430       .  A
C3055      C3504   1.430       .  A
C3055      C3056   1.400       .  A
C3056      C3057   1.402       .  A
C3056      H3061   1.074       .  S
C3057      C3508   1.440       .  A
C3058      C3507   1.440   1_554  A
C3058      N3059   1.424       .  S
N3059      O3063   1.262       .  A
N3059      O3064   1.262   1_554  A
N3062      O3515   1.262       .  A
N3062      O3066   1.262       .  A
O3065      N3512   1.262       .  A
C3067      C3068   1.387       .  A
C3067      C3072   1.404       .  A
C3067      H3074   1.085       .  S
C3068      C3069   1.417       .  A
C3069      C3070   1.418       .  A
C3069      N3076   1.447       .  S
C3070      C3071   1.419       .  A
C3070      H3075   1.067       .  S
C3071      C3072   1.428       .  A
C3072      N3073   1.415       .  S
N3073      O3077   1.262       .  A
N3073      O3078   1.259       .  A
N3076      O3529   1.263       .  A
N3076      O3080   1.262       .  A
O3079      N3526   1.263       .  A
C3081      C3082   1.392       .  A
C3081      C3086   1.381       .  A
C3081      H3088   1.085       .  S
C3082      C3083   1.430       .  A
C3083      C3084   1.420       .  A
C3083      N3090   1.445       .  S
C3084      C3085   1.415       .  A
C3084      H3089   1.077       .  S
C3085      C3086   1.422       .  A
C3086      N3087   1.437       .  S
N3087      O3091   1.263       .  A
N3087      O3092   1.261       .  A
N3090      O3093   1.261       .  A
N3090      O3544   1.263       .  A
O3094      N3540   1.263       .  A
C3095      C3100   1.428       .  A
C3095      H3102   1.080       .  S
C3096      C3097   1.424       .  A
C3097      C3098   1.400       .  A
C3097      N3104   1.432       .  S
C3098      C3099   1.416       .  A
C3098      H3103   1.083       .  S
C3100      N3101   1.439       .  S
N3101      O3105   1.262       .  A
N3101      O3106   1.260       .  A
N3104      O3107   1.262       .  A
N3104      O3108   1.261       .  A
C3109      C3114   1.412       .  A
C3109      H3116   1.082       .  S
C3110      C3111   1.415       .  A
C3111      C3112   1.391       .  A
C3111      N3118   1.432       .  S
C3112      C3113   1.408       .  A
C3112      H3117   1.082       .  S
C3114      N3115   1.442       .  S
N3115      O3119   1.263       .  A
N3115      O3120   1.260       .  A
N3118      O3121   1.263       .  A
N3118      O3122   1.261       .  A
C3123      C3124   1.394       .  A
C3123      C3128   1.422       .  A
C3123      H3130   1.083       .  S
C3124      C3125   1.412       .  A
C3125      C3126   1.382       .  A
C3125      N3132   1.434       .  S
C3126      C3127   1.410       .  A
C3126      H3131   1.075       .  S
C3127      C3128   1.465       .  A
C3128      N3129   1.458       .  S
N3129      O3133   1.263       .  A
N3129      O3134   1.259   1_655  A
N3132      O3135   1.261       .  A
N3132      O3136   1.263       .  A
C3137      C3138   1.419       .  A
C3137      C3142   1.405       .  A
C3137      H3144   1.075       .  S
C3138      C3139   1.448       .  A
C3139      C3140   1.412       .  A
C3139      N3146   1.436       .  S
C3140      C3141   1.396       .  A
C3140      H3145   1.085       .  S
C3141      C3142   1.408       .  A
C3142      N3143   1.438       .  S
N3143      O3147   1.263       .  A
N3143      O3148   1.262       .  A
N3146      O3149   1.263       .  A
N3146      O3150   1.261       .  A
C3151      C3577   1.585   1_455  S
O3152     Zr3188   2.474       .  S
O3153     Zr3187   2.503       .  S
O3153      C3164   1.303       .  A
O3154     Zr3160   2.519       .  S
O3154      C3165   1.309       .  A
O3155      C3166   1.312       .  A
O3156     Zr3190   2.432       .  S
O3156      C3166   1.291       .  A
O3157      C3165   1.283       .  A
O3158      C3164   1.292   1_545  A
O3159     Zr3160   2.389       .  S
O3159      C3163   1.276       .  A
Zr3160     O3162   2.345       .  S
Zr3160     O3168   2.339       .  S
O3161     Zr3187   2.325       .  S
O3161     Zr3190   2.347       .  S
C3163      C3563   1.484       .  S
C3164      C3434   1.503       .  S
C3165      C3518   1.483       .  S
C3166      C3423   1.512       .  S
H3167      O3168   0.965       .  S
O3170     Zr3190   2.322   1_545  S
O3171      C3194   1.297       .  A
O3172     Zr3188   2.499       .  S
O3173     Zr3189   2.543       .  S
O3173      C3196   1.312       .  A
O3174     Zr3190   2.493       .  S
O3174      C3197   1.299       .  A
O3175      C3198   1.297       .  A
O3176     Zr3189   2.525       .  S
O3178     Zr3191   2.568       .  S
O3178      C3201   1.318       .  A
O3179     Zr3189   2.410       .  S
O3179      C3200   1.289       .  A
O3182     Zr3188   2.340       .  S
O3182      C3199   1.275       .  A
O3183      C3198   1.271   1_545  A
O3184     Zr3187   2.361       .  S
O3184      C3197   1.278       .  A
O3185      C3194   1.278       .  A
O3186     Zr3191   2.410       .  S
Zr3187     O3205   2.326       .  S
Zr3190     O3205   2.342       .  S
C3194      C3406   1.449       .  S
C3195      C3479   1.496       .  S
C3196      C3465   1.474       .  S
C3197      C3532   1.465       .  S
C3198      C3448   1.442       .  S
C3199      C3493   1.511       .  S
C3200      C3549   1.534       .  S
C3201      C3504   1.508       .  S
H3202      O3203   0.966       .  S
C3206      C3395   1.564       .  S
C3206      C3462   1.591       .  S
C3206      C3476   1.582       .  S
O3207     Zr3243   2.505       .  S
O3207      C3218   1.305       .  A
O3208     Zr3242   2.526       .  S
O3208      C3219   1.310       .  A
O3209     Zr3215   2.475       .  S
O3209      C3220   1.295       .  A
O3210     Zr3215   2.464       .  S
O3210      C3221   1.294       .  A
O3211     Zr3245   2.338       .  S
O3211      C3221   1.275       .  A
O3212     Zr3244   2.358       .  S
O3212      C3220   1.279       .  A
O3213     Zr3215   2.396       .  S
O3213      C3219   1.284       .  A
O3214     Zr3215   2.396       .  S
O3214      C3218   1.284       .  A
Zr3215     O3216   2.339       .  S
Zr3215     O3217   2.330       .  S
Zr3215     O3225   2.348       .  S
Zr3215     O3223   2.351       .  S
O3216     Zr3242   2.360       .  S
O3216     Zr3245   2.338       .  S
O3217     Zr3243   2.350       .  S
O3217     Zr3244   2.316       .  S
C3218      C3591   1.482       .  S
C3219      C3280   1.506       .  S
C3220      C3367   1.483       .  S
C3221      C3392   1.447       .  S
H3222      O3223   0.966       .  S
O3223     Zr3242   2.357       .  S
O3223     Zr3244   2.314       .  S
H3224      O3225   0.966       .  S
O3225     Zr3243   2.336       .  S
O3225     Zr3245   2.320       .  S
O3226     Zr3242   2.571       .  S
O3226      C3249   1.318       .  A
O3227     Zr3243   2.536       .  S
O3227      C3250   1.311       .  A
O3228     Zr3244   2.523       .  S
O3228      C3251   1.307       .  A
O3229     Zr3245   2.481       .  S
O3229      C3252   1.299       .  A
O3230     Zr3245   2.509       .  S
O3230      C3253   1.304       .  A
O3231     Zr3244   2.462       .  S
O3231      C3254   1.295       .  A
O3232     Zr3246   2.519       .  S
O3232      C3255   1.306       .  A
O3233     Zr3246   2.515       .  S
O3233      C3256   1.305       .  A
O3234     Zr3244   2.286       .  S
O3234      C3255   1.258       .  A
O3235     Zr3245   2.353       .  S
O3235      C3256   1.274       .  A
O3236     Zr3242   2.419       .  S
O3236      C3251   1.290       .  A
O3237     Zr3243   2.355       .  S
O3237      C3254   1.278       .  A
O3238     Zr3243   2.385       .  S
O3238      C3253   1.282       .  A
O3239     Zr3242   2.363       .  S
O3239      C3252   1.280       .  A
O3240     Zr3246   2.361       .  S
O3240      C3249   1.279       .  A
O3241     Zr3246   2.387       .  S
O3241      C3250   1.284       .  A
Zr3242     O3248   2.323       .  S
Zr3242     O3260   2.345       .  S
Zr3243     O3247   2.325       .  S
Zr3243     O3258   2.330       .  S
Zr3244     O3248   2.338       .  S
Zr3244     O3258   2.348       .  S
Zr3245     O3247   2.323       .  S
Zr3245     O3260   2.335       .  S
Zr3246     O3247   2.343       .  S
Zr3246     O3248   2.339       .  S
Zr3246     O3260   2.333       .  S
Zr3246     O3258   2.323       .  S
C3249      C3350   1.509       .  S
C3250      C3294   1.520       .  S
C3251      C3381   1.518       .  S
C3252      C3311   1.459       .  S
C3253      C3339   1.483       .  S
C3254      C3269   1.443       .  S
C3255      C3322   1.468       .  S
C3256      C3574   1.486       .  S
H3257      O3258   0.965       .  S
H3259      O3260   0.965       .  S
C3261      C3266   1.586       .  S
C3261      C3521   1.598       .  S
C3261      C3535   1.579       .  S
C3262      C3364   1.573       .  S
C3262      C3409   1.561       .  S
C3262      C3420   1.610       .  S
C3263      C3297   1.626       .  S
C3263      C3490   1.592       .  S
C3263      C3507   1.597       .  S
C3264      C3325   1.623       .  S
C3264      C3437   1.623       .  S
C3264      C3451   1.548       .  S
C3265      C3266   1.410       .  A
C3265      C3270   1.396       .  A
C3265      H3272   1.047       .  S
C3266      C3267   1.447       .  A
C3267      C3268   1.395       .  A
C3267      N3274   1.426       .  S
C3268      C3269   1.384       .  A
C3268      H3273   1.086       .  S
C3269      C3270   1.397       .  A
C3270      N3271   1.440       .  S
N3271      O3275   1.263       .  A
N3271      O3276   1.261       .  A
N3274      O3277   1.262       .  A
N3274      O3278   1.263       .  A
C3279      C3280   1.390       .  A
C3279      C3284   1.418       .  A
C3279      H3286   1.082       .  S
C3280      C3281   1.415       .  A
C3281      C3282   1.400       .  A
C3281      N3288   1.434       .  S
C3282      C3283   1.416       .  A
C3282      H3287   1.078       .  S
C3283      C3284   1.451       .  A
N3285      O3289   1.264       .  A
N3285      O3290   1.255       .  A
N3288      O3291   1.262       .  A
N3288      O3292   1.263       .  A
C3293      C3294   1.404       .  A
C3293      C3298   1.411       .  A
C3293      H3300   1.084       .  S
C3294      C3295   1.404       .  A
C3295      C3296   1.422       .  A
C3295      N3302   1.431       .  S
C3296      C3297   1.425       .  A
C3296      H3301   1.052       .  S
C3297      C3298   1.441       .  A
C3298      N3299   1.429       .  S
N3299      O3303   1.262       .  A
N3299      O3304   1.263       .  A
N3302      O3305   1.262       .  A
N3302      O3306   1.262       .  A
C3307      C3308   1.426       .  A
C3307      C3312   1.394       .  A
C3307      H3314   1.077       .  S
C3308      C3309   1.434       .  A
C3309      C3310   1.408       .  A
C3309      N3316   1.427       .  S
C3310      C3311   1.395       .  A
C3310      H3315   1.083       .  S
C3311      C3312   1.407       .  A
C3312      N3313   1.445       .  S
N3313      O3317   1.263       .  A
N3313      O3318   1.261       .  A
N3316      O3319   1.264       .  A
N3316      O3320   1.256       .  A
C3321      C3322   1.417       .  A
C3321      C3326   1.417       .  A
C3321      H3328   1.083       .  S
C3322      C3323   1.366       .  A
C3323      C3324   1.373       .  A
C3323      N3330   1.437       .  S
C3324      C3325   1.449       .  A
C3324      H3329   1.052       .  S
C3325      C3326   1.448       .  A
C3326      N3327   1.459       .  S
N3327      O3331   1.260       .  A
N3327      O3332   1.263       .  A
N3330      O3333   1.262       .  A
N3330      O3334   1.263       .  A
C3335      C3336   1.422       .  A
C3335      C3340   1.405       .  A
C3335      H3342   1.067       .  S
C3336      C3337   1.463       .  A
C3337      C3338   1.407       .  A
C3337      N3344   1.440       .  S
C3338      C3339   1.388       .  A
C3338      H3343   1.086       .  S
C3339      C3340   1.402       .  A
C3340      N3341   1.437       .  S
N3341      O3345   1.263       .  A
N3341      O3346   1.262       .  A
N3344      O3347   1.259       .  A
N3344      O3348   1.263       .  A
C3349      C3350   1.392       .  A
C3349      C3354   1.417       .  A
C3349      H3356   1.082       .  S
C3350      C3351   1.421       .  A
C3351      C3352   1.401       .  A
C3351      N3358   1.427       .  S
C3352      C3353   1.398       .  A
C3352      H3357   1.076       .  S
C3353      C3354   1.455       .  A
C3354      N3355   1.431       .  S
N3355      O3359   1.263       .  A
N3355      O3360   1.258       .  A
N3358      O3361   1.260       .  A
N3358      O3362   1.263       .  A
C3363      C3364   1.425       .  A
C3363      C3368   1.418       .  A
C3363      H3370   1.076       .  S
C3364      C3365   1.438       .  A
C3365      C3366   1.378       .  A
C3365      N3372   1.439       .  S
C3366      C3367   1.396       .  A
C3366      H3371   1.086       .  S
C3367      C3368   1.410       .  A
C3368      N3369   1.435       .  S
N3369      O3373   1.262       .  A
N3369      O3374   1.260       .  A
N3372      O3375   1.261       .  A
N3372      O3376   1.263       .  A
C3377      C3378   1.422       .  A
C3377      C3382   1.403       .  A
C3377      H3384   1.076       .  S
C3378      C3379   1.465       .  A
C3379      C3380   1.432       .  A
C3379      N3386   1.453       .  S
C3380      C3381   1.401       .  A
C3380      H3385   1.083       .  S
C3381      C3382   1.412       .  A
C3382      N3383   1.438       .  S
N3383      O3387   1.263       .  A
N3383      O3388   1.263       .  A
N3386      O3389   1.263       .  A
N3386      O3390   1.258   1_565  A
C3391      C3392   1.407       .  A
C3391      C3396   1.404       .  A
C3391      H3398   1.074       .  S
C3392      C3393   1.403       .  A
C3393      C3394   1.394       .  A
C3393      N3400   1.445       .  S
C3394      C3395   1.417       .  A
C3394      H3399   1.079       .  S
C3395      C3396   1.409       .  A
C3396      N3397   1.440       .  S
N3397      O3401   1.263       .  A
N3397      O3402   1.259       .  A
N3400      O3403   1.263       .  A
N3400      O3404   1.263       .  A
C3405      C3406   1.379       .  A
C3405      C3410   1.384       .  A
C3405      H3412   1.087       .  S
C3406      C3407   1.416       .  A
C3407      C3408   1.413       .  A
C3407      N3414   1.443       .  S
C3408      C3409   1.412       .  A
C3408      H3413   1.078       .  S
C3409      C3410   1.448       .  A
C3410      N3411   1.439       .  S
N3411      O3415   1.261       .  A
N3411      O3416   1.263       .  A
N3414      O3417   1.262   1_565  A
N3414      O3418   1.263   1_565  A
C3419      C3420   1.419       .  A
C3419      C3424   1.433       .  A
C3420      C3421   1.449       .  A
C3421      C3422   1.408       .  A
C3421      N3428   1.435       .  S
C3422      C3423   1.396       .  A
C3422      H3427   1.085       .  S
C3423      C3424   1.428       .  A
N3425      O3429   1.261       .  A
N3425      O3430   1.263       .  A
N3428      O3431   1.263       .  A
N3428      O3432   1.261       .  A
C3433      C3438   1.414       .  A
C3433      H3440   1.084       .  S
C3434      C3435   1.416       .  A
C3435      C3436   1.426       .  A
C3435      N3442   1.444       .  S
C3436      C3437   1.431       .  A
C3436      H3441   1.078       .  S
C3438      N3439   1.428       .  S
N3439      O3443   1.264       .  A
N3439      O3444   1.260       .  A
N3442      O3445   1.262       .  A
N3442      O3446   1.262       .  A
C3447      C3448   1.397       .  A
C3447      C3452   1.390   1_565  A
C3447      H3454   1.086   1_565  S
C3448      C3449   1.407       .  A
C3449      C3450   1.404       .  A
C3449      N3456   1.446       .  S
C3450      C3451   1.420       .  A
C3450      H3455   1.079       .  S
C3451      C3452   1.449   1_565  A
N3453      O3457   1.260       .  A
N3453      O3458   1.262       .  A
N3456      O3459   1.262       .  A
N3456      O3460   1.263       .  A
C3461      C3462   1.422       .  A
C3461      C3466   1.411       .  A
C3461      H3468   1.076       .  S
C3463      C3464   1.404       .  A
C3463      N3470   1.439       .  S
C3464      H3469   1.085       .  S
C3465      C3466   1.415       .  A
C3466      N3467   1.447       .  S
N3467      O3471   1.262       .  A
N3470      O3473   1.263       .  A
N3470      O3474   1.263       .  A
C3475      C3476   1.413       .  A
C3475      C3480   1.416       .  A
C3475      H3482   1.080       .  S
C3476      C3477   1.431       .  A
C3477      C3478   1.401       .  A
C3477      N3484   1.431       .  S
C3478      C3479   1.397       .  A
C3478      H3483   1.082       .  S
C3479      C3480   1.415       .  A
N3481      O3486   1.261       .  A
N3484      O3488   1.263       .  A
C3489      C3490   1.441   1_554  A
C3489      C3494   1.427       .  A
C3489      H3496   1.076       .  S
C3491      N3498   1.426       .  S
C3492      C3493   1.405       .  A
C3493      C3494   1.408   1_556  A
N3495      O3499   1.262       .  A
N3498      O3502   1.263       .  A
C3503      C3504   1.397       .  A
C3503      C3508   1.419       .  A
C3503      H3510   1.084       .  S
C3505      C3506   1.400       .  A
C3506      C3507   1.402       .  A
C3506      H3511   1.074       .  S
C3508      N3509   1.424       .  S
N3509      O3513   1.262       .  A
N3509      O3514   1.262       .  A
N3512      O3516   1.262       .  A
C3517      C3518   1.387       .  A
C3517      C3522   1.404       .  A
C3517      H3524   1.085       .  S
C3518      C3519   1.417       .  A
C3519      C3520   1.418       .  A
C3519      N3526   1.447       .  S
C3520      C3521   1.419       .  A
C3520      H3525   1.067       .  S
C3521      C3522   1.428       .  A
C3522      N3523   1.415       .  S
N3523      O3527   1.262       .  A
N3523      O3528   1.259       .  A
N3526      O3530   1.262       .  A
C3531      C3532   1.392       .  A
C3531      C3536   1.381       .  A
C3531      H3538   1.085       .  S
C3532      C3533   1.430       .  A
C3533      C3534   1.420       .  A
C3533      N3540   1.445   1_556  S
C3534      C3535   1.415       .  A
C3534      H3539   1.077   1_556  S
C3535      C3536   1.422       .  A
C3536      N3537   1.437       .  S
N3537      O3541   1.263       .  A
N3537      O3542   1.261   1_556  A
N3540      O3543   1.261       .  A
C3545      C3550   1.428       .  A
C3545      H3552   1.080       .  S
C3546      C3547   1.424       .  A
C3547      C3548   1.400       .  A
C3547      N3554   1.432       .  S
C3548      C3549   1.416       .  A
C3548      H3553   1.083       .  S
C3550      N3551   1.439       .  S
N3551      O3555   1.262       .  A
N3551      O3556   1.260       .  A
N3554      O3557   1.262       .  A
N3554      O3558   1.261       .  A
C3559      C3564   1.412       .  A
C3559      H3566   1.082       .  S
C3560      C3561   1.415       .  A
C3561      C3562   1.391       .  A
C3561      N3568   1.432       .  S
C3562      C3563   1.408       .  A
C3562      H3567   1.082       .  S
C3564      N3565   1.442       .  S
N3565      O3569   1.263       .  A
N3565      O3570   1.260       .  A
N3568      O3571   1.263       .  A
N3568      O3572   1.261       .  A
C3573      C3574   1.394       .  A
C3573      C3578   1.422       .  A
C3573      H3580   1.083       .  S
C3574      C3575   1.412       .  A
C3575      C3576   1.382       .  A
C3575      N3582   1.434       .  S
C3576      C3577   1.410       .  A
C3576      H3581   1.075       .  S
C3577      C3578   1.465       .  A
C3578      N3579   1.458       .  S
N3579      O3583   1.263       .  A
N3579      O3584   1.259   1_655  A
N3582      O3585   1.261       .  A
N3582      O3586   1.263       .  A
C3587      C3588   1.419       .  A
C3587      C3592   1.405       .  A
C3587      H3594   1.075       .  S
C3588      C3589   1.448       .  A
C3589      C3590   1.412       .  A
C3589      N3596   1.436       .  S
C3590      C3591   1.396       .  A
C3590      H3595   1.085       .  S
C3591      C3592   1.408       .  A
C3592      N3593   1.438       .  S
N3593      O3597   1.263       .  A
N3593      O3598   1.262       .  A
N3596      O3599   1.263       .  A
N3596      O3600   1.261       .  A
