geometry optimzed in LAMMPS
_audit_creation_date              2020-11-30 
_audit_creation_method            'lammps2cif' 
_symmetry_space_group_name_H-M    'P1' 
_symmetry_Int_Tables_number       1 
_symmetry_cell_setting            triclinic 
loop_ 
_symmetry_equiv_pos_as_xyz 
  x,y,z 
_cell_length_a                    41.92077676 
_cell_length_b                    25.370060329875912 
_cell_length_c                    42.167161725172036 
_cell_angle_alpha                 90.09478009985772 
_cell_angle_beta                  90.09359101436742 
_cell_angle_gamma                 89.71951678685015 
loop_ 
_atom_site_label 
_atom_site_type_symbol 
_atom_site_fract_x 
_atom_site_fract_y 
_atom_site_fract_z 
_atom_site_charge 
C1          C  0.51884746  0.58097759  0.33929275     0.88400
C2          C  0.54227701  0.57261754  0.36669506    -0.51900
C3          C  0.57126350  0.59575548  0.36199587     0.11300
C4          C  0.57427582  0.62363053  0.32955626     0.22200
C5          C  0.51734941  0.64077029  0.33448522    -0.52600
C6          C  0.54639996  0.66280186  0.32936084     0.11400
C7          C  0.53579591  0.55947087  0.30983290    -0.52100
C8          C  0.56476873  0.58209711  0.30459446     0.12000
H9          H  0.53600900  0.55242577  0.38850862     0.16500
H10         H  0.59777765  0.64206520  0.32495519     0.02200
H11         H  0.49540131  0.66370730  0.33548366     0.16800
H12         H  0.52522365  0.53091020  0.29376991     0.16600
C13         C  0.91906921  0.41787228  0.08514344     0.88400
C14         C  0.89760862  0.42006892  0.11455639    -0.51900
C15         C  0.86911586  0.39453371  0.11076709     0.11300
C16         C  0.86457864  0.37071073  0.07734785     0.22200
C17         C  0.92220087  0.35917655  0.07713803    -0.52600
C18         C  0.89365743  0.33495915  0.07293160     0.11400
C19         C  0.89894373  0.44114313  0.05819603    -0.52100
C20         C  0.87049197  0.41608075  0.05404145     0.12000
H21         H  0.90476190  0.43847829  0.13671660     0.16500
H22         H  0.84152283  0.35038932  0.07336767     0.02200
H23         H  0.94489902  0.33852985  0.07517185     0.16800
H24         H  0.90739062  0.47184866  0.04240619     0.16600
In25       In  0.30531704  0.50481971  0.32268713     1.36900
C26         C  0.26198801  0.57589107  0.30519612     0.79500
O27         O  0.32607936  0.51143524  0.27432451    -0.59000
O28         O  0.30057647  0.44148200  0.28559950    -0.49900
C29         C  0.36527377  0.52055956  0.33986154     0.72100
O30         O  0.34458433  0.55677284  0.34115408    -0.44800
C31         C  0.28498525  0.45204872  0.37303624     0.76800
O32         O  0.28886704  0.58901304  0.31593545    -0.56600
O33         O  0.28990699  0.43028926  0.34665462    -0.46700
O34         O  0.25654107  0.52712771  0.30538929    -0.53000
C35         C  0.31647994  0.46689523  0.26543540     0.87000
O36         O  0.35515939  0.47639320  0.33092302    -0.54900
O37         O  0.28885035  0.50127369  0.37345339    -0.58200
C38         C  0.27621198  0.36705692  0.45489554     0.88400
C39         C  0.30707839  0.37642176  0.47311717    -0.51900
C40         C  0.30705007  0.35386348  0.00125340     0.11300
C41         C  0.27729363  0.32058790  0.01002029     0.22200
C42         C  0.27443879  0.30747729  0.45085235    -0.52600
C43         C  0.27644108  0.27899187  0.47863792     0.11400
C44         C  0.24945998  0.38118735  0.47777876    -0.52100
C45         C  0.24916393  0.36051067  0.00790386     0.12000
H46         H  0.32576501  0.40248148  0.46474472     0.16500
H47         H  0.27917079  0.30036808  0.03321575     0.02200
H48         H  0.27246098  0.29059392  0.42738217     0.16800
H49         H  0.23150109  0.41107105  0.47268305     0.16600
In50       In  0.13438102  0.50117890  0.07077337     1.36900
C51         C  0.18200168  0.43297390  0.05920823     0.79500
O52         O  0.11965411  0.49171561  0.01999537    -0.59000
O53         O  0.13905402  0.56546740  0.03393132    -0.49900
C54         C  0.07298200  0.48374234  0.08279110     0.72100
O55         O  0.09367174  0.44745509  0.08389096    -0.44800
C56         C  0.14979049  0.55379922  0.12353163     0.76800
O57         O  0.15441435  0.41791585  0.06675177    -0.56600
O58         O  0.15026033  0.57468163  0.09644616    -0.46700
O59         O  0.18563709  0.48219398  0.05941743    -0.53000
C60         C  0.12734228  0.53768529  0.01200655     0.87000
O61         O  0.08365737  0.52866969  0.07616855    -0.54900
O62         O  0.14253331  0.50565123  0.12368292    -0.58200
C63         C  0.16392994  0.63885693  0.20593514     0.88400
C64         C  0.13690035  0.63018860  0.22975606    -0.51900
C65         C  0.14048494  0.65780061  0.25751328     0.11300
C66         C  0.17059594  0.69242950  0.25826082     0.22200
C67         C  0.16494727  0.69844550  0.20088110    -0.52600
C68         C  0.16830289  0.72764337  0.22820239     0.11400
C69         C  0.19445319  0.62544099  0.22408281    -0.52100
C70         C  0.19783087  0.65295487  0.25166402     0.12000
H71         H  0.11703454  0.60418231  0.22484339     0.16500
H72         H  0.17362123  0.71384526  0.28097035     0.02200
H73         H  0.16270260  0.71507824  0.17736748     0.16800
H74         H  0.21081868  0.59428963  0.21689460     0.16600
C75         C  0.41876709  0.39897646  0.08700080     0.88400
C76         C  0.42455755  0.34159484  0.09650659    -0.51900
C77         C  0.39772656  0.31664797  0.10620983     0.11300
C78         C  0.36762429  0.35074302  0.10586589     0.22200
C79         C  0.39239607  0.39644792  0.06153297    -0.52600
C80         C  0.36542568  0.37052265  0.07159478     0.11400
C81         C  0.40305649  0.42472764  0.11597519    -0.52100
C82         C  0.37629515  0.39916150  0.12572157     0.12000
H83         H  0.44743585  0.32162186  0.09409853     0.16500
H84         H  0.34598352  0.32971641  0.11417423     0.02200
H85         H  0.39515814  0.41316941  0.03805062     0.16800
H86         H  0.41274945  0.45877068  0.12826020     0.16600
C87         C  0.02377235  0.59653596  0.34097472     0.88400
C88         C  0.02218155  0.65625452  0.34609844    -0.51900
C89         C  0.05131977  0.67874917  0.34999987     0.11300
C90         C  0.07939276  0.64014955  0.34830060     0.22200
C91         C  0.04595461  0.58874490  0.31249786    -0.52600
C92         C  0.07499045  0.61240965  0.31595197     0.11400
C93         C  0.04234519  0.57521002  0.36955849    -0.52100
C94         C  0.07145877  0.59829481  0.37341389     0.12000
H95         H  0.00008223  0.67885405  0.34611299     0.16500
H96         H  0.10297139  0.65898444  0.35192807     0.02200
H97         H  0.03879066  0.56851144  0.29092102     0.16800
H98         H  0.03286324  0.54625247  0.38594334     0.16600
In99       In  0.81103784  0.50063384  0.35129975     1.36900
C100        C  0.76371608  0.56448567  0.36869399     0.79500
O101        O  0.79715539  0.49730737  0.29962288    -0.59000
O102        O  0.79634928  0.42615224  0.32606592    -0.49900
C103        C  0.87088781  0.52388964  0.33687996     0.72100
O104        O  0.84867186  0.55747617  0.33491783    -0.44800
C105        C  0.82190647  0.46637017  0.40953339     0.76800
O106        O  0.78983997  0.58181812  0.35837500    -0.56600
O107        O  0.81095839  0.43638419  0.38824508    -0.46700
O108        O  0.76088578  0.51511018  0.36773554    -0.53000
C109        C  0.79251304  0.44826017  0.29958591     0.87000
O110        O  0.86235767  0.47829108  0.34481125    -0.54900
O111        O  0.82752372  0.51283741  0.40094966    -0.58200
C112        C  0.77690440  0.36369833  0.21751802     0.88400
C113        C  0.77593168  0.30432361  0.22280836    -0.51900
C114        C  0.77322250  0.27451783  0.19565485     0.11300
C115        C  0.77199140  0.30930170  0.16524526     0.22200
C116        C  0.80459524  0.37224061  0.19462273    -0.52600
C117        C  0.80207585  0.34451676  0.16680073     0.11400
C118        C  0.74690920  0.37668926  0.19843162    -0.52100
C119        C  0.74435241  0.34873497  0.17089784     0.12000
H120        H  0.77796030  0.28824138  0.24648643     0.16500
H121        H  0.76968341  0.28709696  0.14268273     0.02200
H122        H  0.82402937  0.39863630  0.20024888     0.16800
H123        H  0.73003406  0.40732978  0.20523597     0.16600
In124      In  0.62996319  0.48634872  0.10228343     1.36900
C125        C  0.67628320  0.41946335  0.11870387     0.79500
O126        O  0.64392113  0.48718936  0.05066592    -0.59000
O127        O  0.64723899  0.55879022  0.07660848    -0.49900
C128        C  0.57002702  0.46801781  0.08507124     0.72100
O129        O  0.59085421  0.43195239  0.08589342    -0.44800
C130        C  0.61863747  0.52321011  0.16036019     0.76800
O131        O  0.64939712  0.40374364  0.10926181    -0.56600
O132        O  0.63077931  0.55151840  0.13899093    -0.46700
O133        O  0.68005650  0.46866519  0.11789856    -0.53000
C134        C  0.65006577  0.53574593  0.05023873     0.87000
O135        O  0.57990957  0.51322144  0.09233125    -0.54900
O136        O  0.61238622  0.47671782  0.15208505    -0.58200
C137        C  0.66372005  0.61930880  0.46937772     0.88400
C138        C  0.66499867  0.67878150  0.47490451    -0.51900
C139        C  0.66787439  0.70837041  0.44777372     0.11300
C140        C  0.66945262  0.67362987  0.41737542     0.22200
C141        C  0.63619182  0.61126020  0.44600014    -0.52600
C142        C  0.63925005  0.63921976  0.41838517     0.11400
C143        C  0.69384395  0.60593136  0.45062535    -0.52100
C144        C  0.69674799  0.63389365  0.42321390     0.12000
H145        H  0.66336199  0.69509264  0.49859189     0.16500
H146        H  0.67202399  0.69533917  0.39476995     0.02200
H147        H  0.61632490  0.58546331  0.45117928     0.16800
H148        H  0.71041638  0.57485923  0.45743808     0.16600
C149        C  0.01936449  0.91647421  0.33675248     0.88400
C150        C  0.04194809  0.92357324  0.30859115    -0.51900
C151        C  0.07164074  0.90238038  0.31332318     0.11300
C152        C  0.07613482  0.87763207  0.34655538     0.22200
C153        C  0.01957072  0.85721827  0.34345237    -0.52600
C154        C  0.04926848  0.83717039  0.34857694     0.11400
C155        C  0.03648515  0.94137169  0.36515345    -0.52100
C156        C  0.06617467  0.92075993  0.37046095     0.12000
H157        H  0.03462045  0.94138425  0.28630099     0.16500
H158        H  0.10018186  0.86077728  0.35117748     0.02200
H159        H  0.99823368  0.83302881  0.34347038     0.16800
H160        H  0.02550108  0.97050366  0.38063342     0.16600
C161        C  0.42471913  0.07661347  0.08568076     0.88400
C162        C  0.40217501  0.07623193  0.05692559    -0.51900
C163        C  0.37376566  0.10188898  0.06214066     0.11300
C164        C  0.37048480  0.12406330  0.09605559     0.22200
C165        C  0.42808481  0.13481218  0.09462641    -0.52600
C166        C  0.39969295  0.15911287  0.10019052     0.11400
C167        C  0.40551527  0.05224655  0.11284387    -0.52100
C168        C  0.37716937  0.07743953  0.11825894     0.12000
H169        H  0.40847298  0.05869100  0.03425544     0.16500
H170        H  0.34759895  0.14452274  0.10117165     0.02200
H171        H  0.45081538  0.15510234  0.09621160     0.16800
H172        H  0.41436614  0.02034558  0.12764756     0.16600
In173      In  0.80428532  0.98874153  0.35296867     1.36900
C174        C  0.76096941  0.91840755  0.37045584     0.79500
O175        O  0.82392005  0.97711190  0.40157939    -0.59000
O176        O  0.80305879  0.05166701  0.39062933    -0.49900
C177        C  0.86419868  0.97258888  0.33515686     0.72100
O178        O  0.84324715  0.93727419  0.33268511    -0.44800
C179        C  0.78235241  0.04369628  0.30384634     0.76800
O180        O  0.78750317  0.90482553  0.35898599    -0.56600
O181        O  0.78566945  0.06362959  0.33100061    -0.46700
O182        O  0.75567167  0.96729932  0.37066229    -0.53000
C183        C  0.81696884  0.02291074  0.41080602     0.87000
O184        O  0.85431567  0.01628060  0.34539843    -0.54900
O185        O  0.78869487  0.99519018  0.30203027    -0.58200
C186        C  0.77246052  0.12830833  0.22210926     0.88400
C187        C  0.80390634  0.11844522  0.20490089    -0.51900
C188        C  0.80612675  0.14286937  0.17628482     0.11300
C189        C  0.77642363  0.17684009  0.16780578     0.22200
C190        C  0.76976219  0.18803499  0.22494514    -0.52600
C191        C  0.77233733  0.21488146  0.19671087     0.11400
C192        C  0.74649227  0.11242158  0.19871958    -0.52100
C193        C  0.74840696  0.13734176  0.17019026     0.12000
H194        H  0.82259836  0.09291589  0.21419894     0.16500
H195        H  0.77808855  0.19681128  0.14452160     0.02200
H196        H  0.76636465  0.20652573  0.24784955     0.16800
H197        H  0.72883122  0.08237273  0.20381373     0.16600
In198      In  0.63955338  0.99077175  0.10280451     1.36900
C199        C  0.68550238  0.06000901  0.11627662     0.79500
O200        O  0.62214733  0.00004178  0.15270890    -0.59000
O201        O  0.64534132  0.92810591  0.14067983    -0.49900
C202        C  0.57855226  0.00909792  0.08848317     0.72100
O203        O  0.59919518  0.04513694  0.08852690    -0.44800
C204        C  0.65665804  0.93795606  0.05053567     0.76800
O205        O  0.65827998  0.07420057  0.10673505    -0.56600
O206        O  0.65411438  0.91612287  0.07722366    -0.46700
O207        O  0.68987794  0.01086602  0.11693897    -0.53000
C208        C  0.63152337  0.95531978  0.16169886     0.87000
O209        O  0.58909849  0.96388869  0.09509150    -0.54900
O210        O  0.65190392  0.98703331  0.05069493    -0.58200
C211        C  0.66406260  0.85645670  0.47079749     0.88400
C212        C  0.63701578  0.86598385  0.44697917    -0.51900
C213        C  0.64049113  0.83860424  0.41914108     0.11300
C214        C  0.67048100  0.80332356  0.41828339     0.22200
C215        C  0.66493430  0.79678558  0.47563834    -0.52600
C216        C  0.66812270  0.76784951  0.44818870     0.11400
C217        C  0.69459667  0.86938552  0.45272874    -0.52100
C218        C  0.69783313  0.84208240  0.42503324     0.12000
H219        H  0.61717105  0.89232221  0.45193626     0.16500
H220        H  0.67337956  0.78215151  0.39547538     0.02200
H221        H  0.66266417  0.77988489  0.49908096     0.16800
H222        H  0.71100330  0.90018625  0.46000529     0.16600
C223        C  0.52466182  0.90734578  0.33587868     0.88400
C224        C  0.52115995  0.84768324  0.33172941    -0.51900
C225        C  0.54947636  0.82210499  0.32789578     0.11300
C226        C  0.57874737  0.85795297  0.32865881     0.22200
C227        C  0.54742866  0.91409497  0.36401414    -0.52600
C228        C  0.57565534  0.88745340  0.36062974     0.11400
C229        C  0.54346001  0.92561649  0.30680420    -0.52100
C230        C  0.57179001  0.89960157  0.30297597     0.12000
H231        H  0.49839601  0.82736491  0.33229313     0.16500
H232        H  0.60166088  0.83665384  0.32509853     0.02200
H233        H  0.54119118  0.93589139  0.38534261     0.16800
H234        H  0.53472546  0.95508392  0.29021786     0.16600
C235        C  0.91552170  0.09534020  0.08831371     0.88400
C236        C  0.92016205  0.15282265  0.07854463    -0.51900
C237        C  0.89276190  0.17692815  0.06910622     0.11300
C238        C  0.86323444  0.14192605  0.07000650     0.22200
C239        C  0.88956193  0.09736179  0.11412690    -0.52600
C240        C  0.86202148  0.12250870  0.10441174     0.11400
C241        C  0.89970915  0.06885745  0.05964586    -0.52100
C242        C  0.87232602  0.09349125  0.05019124     0.12000
H243        H  0.94275306  0.17345252  0.08052786     0.16500
H244        H  0.84110066  0.16224798  0.06196319     0.02200
H245        H  0.89305369  0.08112751  0.13766103     0.16800
H246        H  0.90971349  0.03490181  0.04739524     0.16600
In247      In  0.12885251  0.01371592  0.07304884     1.36900
C248        C  0.17574300  0.08040599  0.05815001     0.79500
O249        O  0.14298282  0.00970069  0.12463707    -0.59000
O250        O  0.14492627  0.93917567  0.09746198    -0.49900
C251        C  0.06837647  0.03079104  0.08981236     0.72100
O252        O  0.08889176  0.06708687  0.08985142    -0.44800
C253        C  0.11843092  0.97863580  0.01455712     0.76800
O254        O  0.14870740  0.09639726  0.06724744    -0.56600
O255        O  0.13159088  0.95040202  0.03547577    -0.46700
O256        O  0.17926389  0.03109358  0.05843156    -0.53000
C257        C  0.14831125  0.96075519  0.12418975     0.87000
O258        O  0.07883396  0.98610059  0.08191636    -0.54900
O259        O  0.11075503  0.02434590  0.02344698    -0.58200
C260        C  0.16442306  0.87590409  0.20601756     0.88400
C261        C  0.16557951  0.81631732  0.20092864    -0.51900
C262        C  0.16837119  0.78716751  0.22826821     0.11300
C263        C  0.17012845  0.82248658  0.25842422     0.22200
C264        C  0.13694095  0.88503990  0.22930463    -0.52600
C265        C  0.13996270  0.85759673  0.25715247     0.11400
C266        C  0.19461752  0.88897908  0.22471103    -0.52100
C267        C  0.19757044  0.86142067  0.25230142     0.12000
H268        H  0.16389607  0.79964033  0.17735421     0.16500
H269        H  0.17271498  0.80108227  0.28116034     0.02200
H270        H  0.11719324  0.91130091  0.22389600     0.16800
H271        H  0.21132247  0.91937855  0.21761527     0.16600
In272      In  0.31139472  0.99855690  0.32040923     1.36900
C273        C  0.26522195  0.93191170  0.30462911     0.79500
O274        O  0.29794721  0.00190793  0.37196403    -0.59000
O275        O  0.29280292  0.07173619  0.34461754    -0.49900
C276        C  0.37211873  0.98089136  0.33532489     0.72100
O277        O  0.35163045  0.94462491  0.33507696    -0.44800
C278        C  0.32139198  0.03198548  0.26192084     0.76800
O279        O  0.29090517  0.91619341  0.31717486    -0.56600
O280        O  0.31063624  0.06229882  0.28319139    -0.46700
O281        O  0.26240426  0.98116975  0.30232116    -0.53000
C282        C  0.29057213  0.05008418  0.37138705     0.87000
O283        O  0.36148246  0.02615218  0.32901153    -0.54900
O284        O  0.32724205  0.98553129  0.27064162    -0.58200
C285        C  0.27878190  0.13142263  0.45444012     0.88400
C286        C  0.27633431  0.19090931  0.45071041    -0.51900
C287        C  0.27760427  0.21917974  0.47858544     0.11300
C288        C  0.27304484  0.18824767  0.01253338     0.22200
C289        C  0.30964644  0.12217598  0.47273031    -0.52600
C290        C  0.30307831  0.15236645  0.00996399     0.11400
C291        C  0.25203511  0.11673868  0.47719688    -0.52100
C292        C  0.24500322  0.14954105  0.00750381     0.12000
H293        H  0.27403487  0.20794794  0.42733407     0.16500
H294        H  0.27154458  0.21034518  0.03519764     0.02200
H295        H  0.32848131  0.09610325  0.46431285     0.16800
H296        H  0.23413788  0.08720515  0.47174422     0.16600
C297        C  0.28193020  0.07871991  0.39957477    -0.11400
C298        C  0.27834039  0.10260546  0.42411669    -0.13000
C299        C  0.22160027  0.87560226  0.27540480    -0.11400
C300        C  0.24167196  0.89703436  0.29141790    -0.13000
C301        C  0.16090458  0.90632232  0.17637500    -0.11400
C302        C  0.15634566  0.93132487  0.15235523    -0.13000
C303        C  0.22096919  0.13625624  0.03083314    -0.11400
C304        C  0.20019304  0.11484211  0.04596451    -0.13000
C305        C  0.94613657  0.07110115  0.09753293    -0.16600
C306        C  0.97364163  0.05758077  0.10073833     0.07400
C307        C  0.00684399  0.04685605  0.10028992     0.09300
C308        C  0.03517710  0.03966750  0.09698223    -0.17500
C309        C  0.49356973  0.93335209  0.33996660    -0.16600
C310        C  0.46643763  0.94893295  0.34222268     0.07400
C311        C  0.43367936  0.96222781  0.34278000     0.09300
C312        C  0.40545189  0.97117320  0.34089559    -0.17500
C313        C  0.61871277  0.84323952  0.39140733    -0.14600
C314        C  0.59881504  0.88444381  0.38716781    -0.29700
H315        H  0.61949443  0.81172270  0.37402131     0.14500
H316        H  0.59794025  0.91591075  0.40457950     0.15000
C317        C  0.62587926  0.93694466  0.19347680    -0.16600
C318        C  0.61795717  0.92521870  0.22007664     0.07400
C319        C  0.60516786  0.91457078  0.25045811     0.09300
C320        C  0.59145732  0.90721617  0.27523285    -0.17500
C321        C  0.66305550  0.90870292  0.02181686    -0.11400
C322        C  0.66018333  0.88701181  0.50039859    -0.13000
C323        C  0.70894331  0.09644543  0.12836842    -0.11400
C324        C  0.72786130  0.12064939  0.14443385    -0.13000
C325        C  0.83463269  0.13367931  0.15624326    -0.14600
C326        C  0.83368368  0.13410653  0.12448977    -0.29700
H327        H  0.85659317  0.12295352  0.16830588     0.14500
H328        H  0.81161041  0.14452762  0.11250623     0.15000
C329        C  0.82535339  0.04088299  0.44186679    -0.16600
C330        C  0.83513869  0.05297214  0.46768648     0.07400
C331        C  0.84911990  0.06548795  0.49709935     0.09300
C332        C  0.85510132  0.07860746  0.02209776    -0.17500
C333        C  0.77402907  0.07464504  0.27651888    -0.11400
C334        C  0.77113232  0.10003761  0.25249416    -0.13000
C335        C  0.73928739  0.88183272  0.38485026    -0.11400
C336        C  0.72080365  0.85846661  0.40158968    -0.13000
C337        C  0.34969072  0.10833749  0.03648886    -0.14600
C338        C  0.32692017  0.14639241  0.03617169    -0.29700
H339        H  0.35178249  0.08096077  0.01690737     0.14500
H340        H  0.32525397  0.17406581  0.05570147     0.15000
C341        C  0.35856485  0.06813439  0.14632851    -0.16600
C342        C  0.34571854  0.06302240  0.17164734     0.07400
C343        C  0.33412075  0.05683081  0.20276813     0.09300
C344        C  0.32700365  0.04839042  0.22993397    -0.17500
C345        C  0.45618350  0.05201992  0.08049334    -0.16600
C346        C  0.48377372  0.03821298  0.07884266     0.07400
C347        C  0.51689325  0.02683407  0.07961754     0.09300
C348        C  0.54520343  0.01882573  0.08245563    -0.17500
C349        C  0.11757755  0.86193621  0.28452107    -0.14600
C350        C  0.09513891  0.89996510  0.28704379    -0.29700
H351        H  0.11989835  0.83260730  0.30308432     0.14500
H352        H  0.09234371  0.92899737  0.26840816     0.15000
C353        C  0.08383849  0.93251546  0.39912388    -0.16600
C354        C  0.09579108  0.94164655  0.42466479     0.07400
C355        C  0.10720799  0.95283530  0.45563269     0.09300
C356        C  0.11514752  0.96406475  0.48239166    -0.17500
C357        C  0.89734746  0.96334403  0.32864576    -0.16600
C358        C  0.92575893  0.95638650  0.32684349     0.07400
C359        C  0.95899170  0.94721917  0.32812561     0.09300
C360        C  0.98684974  0.93629545  0.33128269    -0.17500
C361        C  0.65824067  0.56322665  0.02147626    -0.11400
C362        C  0.66021035  0.58825717  0.49872667    -0.13000
C363        C  0.72043821  0.36303565  0.14763122    -0.11400
C364        C  0.70020507  0.38483978  0.13186584    -0.13000
C365        C  0.78458790  0.41933213  0.27119872    -0.11400
C366        C  0.78007008  0.39446866  0.24710258    -0.13000
C367        C  0.73986325  0.59766836  0.38311430    -0.11400
C368        C  0.72021590  0.61898513  0.39975012    -0.13000
C369        C  0.05496159  0.73457355  0.35300341    -0.11400
C370        C  0.05445970  0.78182442  0.35263875    -0.13000
C371        C  0.90383794  0.53689944  0.33220642    -0.16600
C372        C  0.93189630  0.54710908  0.33156027     0.07400
C373        C  0.96458713  0.55995725  0.33359602     0.09300
C374        C  0.99191136  0.57377327  0.33667701    -0.17500
C375        C  0.39690861  0.26084197  0.10978376    -0.11400
C376        C  0.39749744  0.21386499  0.10753370    -0.13000
C377        C  0.44876144  0.42417142  0.07751447    -0.16600
C378        C  0.47596146  0.43850210  0.07414155     0.07400
C379        C  0.50890876  0.45020794  0.07443283     0.09300
C380        C  0.53707321  0.45828622  0.07772867    -0.17500
C381        C  0.11878543  0.65393741  0.28530984    -0.14600
C382        C  0.09790090  0.61431192  0.28923140    -0.29700
H383        H  0.12040805  0.68483874  0.30302779     0.14500
H384        H  0.09599331  0.58354423  0.27147974     0.15000
C385        C  0.12482041  0.55695149  0.48270593    -0.16600
C386        C  0.11694656  0.56969964  0.45628590     0.07400
C387        C  0.10437122  0.58094919  0.42593894     0.09300
C388        C  0.09085110  0.58889783  0.40112890    -0.17500
C389        C  0.15614605  0.58313423  0.15220456    -0.11400
C390        C  0.16009326  0.60823858  0.17633662    -0.13000
C391        C  0.22734633  0.37508016  0.03314709    -0.11400
C392        C  0.20686288  0.39762155  0.04832248    -0.13000
C393        C  0.33629014  0.36147625  0.02050974    -0.14600
C394        C  0.33655270  0.35929721  0.05221299    -0.29700
H395        H  0.35777625  0.37274238  0.00796975     0.14500
H396        H  0.31499622  0.34826158  0.06471102     0.15000
C397        C  0.35953036  0.41289763  0.15422369    -0.16600
C398        C  0.34658872  0.42239326  0.17900676     0.07400
C399        C  0.33325565  0.43397694  0.20880025     0.09300
C400        C  0.32403508  0.44674784  0.23467979    -0.17500
C401        C  0.27510757  0.39677685  0.42498673    -0.11400
C402        C  0.27755445  0.42231570  0.40099914    -0.13000
C403        C  0.22106583  0.63650936  0.27498024    -0.11400
C404        C  0.23994734  0.61282126  0.29131056    -0.13000
C405        C  0.89132185  0.27981646  0.06659663    -0.11400
C406        C  0.89105723  0.23270490  0.06502924    -0.13000
C407        C  0.84637305  0.38897761  0.13754032    -0.14600
C408        C  0.82450913  0.35013033  0.13953484    -0.29700
H409        H  0.84881162  0.41734786  0.15658511     0.14500
H410        H  0.82243299  0.32156849  0.12050448     0.15000
C411        C  0.82776053  0.44973483  0.44144659    -0.16600
C412        C  0.83443342  0.44125206  0.46874014     0.07400
C413        C  0.84489352  0.43490291  0.50026719     0.09300
C414        C  0.85184811  0.42326941  0.02568967    -0.17500
C415        C  0.95056577  0.44237028  0.08901853    -0.16600
C416        C  0.97808066  0.45611120  0.09034381     0.07400
C417        C  0.01114171  0.46714656  0.08990543     0.09300
C418        C  0.03948992  0.47463509  0.08773749    -0.17500
C419        C  0.55032041  0.71857300  0.32609237    -0.11400
C420        C  0.55131766  0.76583229  0.32564723    -0.13000
C421        C  0.59534837  0.59698260  0.38773695    -0.16200
C422        C  0.61674451  0.63603141  0.39109793    -0.29700
H423        H  0.59382971  0.56613363  0.40541457     0.14500
H424        H  0.61804123  0.66697428  0.37343266     0.15000
C425        C  0.61194144  0.54204184  0.19188391    -0.16600
C426        C  0.60456879  0.55409092  0.21862420     0.07400
C427        C  0.59373897  0.56509215  0.24973652     0.09300
C428        C  0.58216550  0.57301047  0.27553068    -0.17500
C429        C  0.48715519  0.55872175  0.34467655    -0.16600
C430        C  0.45967899  0.54608100  0.34758758     0.07400
C431        C  0.42668089  0.53602850  0.34845919     0.09300
C432        C  0.39836630  0.52918515  0.34637930    -0.17500
C433        C  0.51818113  0.57879956  0.83957250     0.88400
C434        C  0.54191371  0.56964179  0.86667596    -0.51900
C435        C  0.57124480  0.59128226  0.86140566     0.11300
C436        C  0.57428249  0.61830861  0.82872879     0.22200
C437        C  0.51781513  0.63856607  0.83443194    -0.52600
C438        C  0.54721723  0.65894526  0.82874143     0.11400
C439        C  0.53424025  0.55595362  0.80998215    -0.52100
C440        C  0.56357810  0.57687084  0.80420890     0.12000
H441        H  0.53557250  0.55038890  0.88877205     0.16500
H442        H  0.59806521  0.63537601  0.82364654     0.02200
H443        H  0.49636891  0.66272525  0.83575959     0.16800
H444        H  0.52289113  0.52767640  0.79426841     0.16600
C445        C  0.92334009  0.41726978  0.58588441     0.88400
C446        C  0.90155131  0.41759987  0.61510147    -0.51900
C447        C  0.87280899  0.39328605  0.61020091     0.11300
C448        C  0.86842775  0.37244902  0.57609587     0.22200
C449        C  0.92591384  0.35924882  0.57615891    -0.52600
C450        C  0.89716380  0.33624051  0.57098581     0.11400
C451        C  0.90377027  0.44338889  0.55948557    -0.52100
C452        C  0.87510329  0.41954777  0.55429221     0.12000
H453        H  0.90863198  0.43390191  0.63786972     0.16500
H454        H  0.84520086  0.35315727  0.57129562     0.02200
H455        H  0.94839132  0.33796147  0.57414253     0.16800
H456        H  0.91271901  0.47511815  0.54474028     0.16600
In457      In  0.30337474  0.50832580  0.82494927     1.36900
C458        C  0.25980491  0.57938741  0.80855510     0.79500
O459        O  0.32126798  0.51938951  0.77587389    -0.59000
O460        O  0.29977795  0.44580192  0.78733111    -0.49900
C461        C  0.36377452  0.52256878  0.84134112     0.72100
O462        O  0.34307608  0.55848597  0.84432637    -0.44800
C463        C  0.28234455  0.45430424  0.87442832     0.76800
O464        O  0.28652211  0.59255335  0.81969230    -0.56600
O465        O  0.28567048  0.43388475  0.84741654    -0.46700
O466        O  0.25454928  0.53059336  0.80814729    -0.53000
C467        C  0.31306428  0.47421603  0.76672796     0.87000
O468        O  0.35350380  0.47934808  0.83096462    -0.54900
O469        O  0.28845699  0.50281307  0.87600439    -0.58200
C470        C  0.27277786  0.36966103  0.95591762     0.88400
C471        C  0.30442855  0.37867796  0.97280023    -0.51900
C472        C  0.30895066  0.35023815  0.50121607     0.11300
C473        C  0.27937450  0.31558806  0.50832157     0.22200
C474        C  0.26993504  0.30998970  0.95292635    -0.52600
C475        C  0.27277925  0.28287050  0.98109387     0.11400
C476        C  0.24710501  0.38587345  0.97952545    -0.52100
C477        C  0.25090330  0.35480879  0.50585365     0.12000
H478        H  0.32311602  0.40363045  0.96327317     0.16500
H479        H  0.28067737  0.29449859  0.53128199     0.02200
H480        H  0.26624222  0.29179690  0.92998619     0.16800
H481        H  0.22912528  0.41573960  0.97446464     0.16600
In482      In  0.13885674  0.49871729  0.57204609     1.36900
C483        C  0.18538888  0.42928974  0.55851326     0.79500
O484        O  0.12131442  0.49184217  0.52213622    -0.59000
O485        O  0.14457964  0.56286488  0.53540636    -0.49900
C486        C  0.07770126  0.48031820  0.58465057     0.72100
O487        O  0.09856117  0.44428639  0.58536414    -0.44800
C488        C  0.15433813  0.55262259  0.62432657     0.76800
O489        O  0.15830630  0.41506218  0.56808735    -0.56600
O490        O  0.15361887  0.57325449  0.59721126    -0.46700
O491        O  0.18928213  0.47843958  0.55777318    -0.53000
C492        C  0.13061143  0.53690232  0.51400778     0.87000
O493        O  0.08811267  0.52547788  0.57821782    -0.54900
O494        O  0.14870108  0.50387748  0.62472815    -0.58200
C495        C  0.16500107  0.64013011  0.70620610     0.88400
C496        C  0.13679960  0.63165504  0.72866061    -0.51900
C497        C  0.13909928  0.65936721  0.75649020     0.11300
C498        C  0.16915814  0.69378672  0.75872484     0.22200
C499        C  0.16635221  0.69976925  0.70115128    -0.52600
C500        C  0.16839682  0.72890544  0.72864022     0.11400
C501        C  0.19457557  0.62668805  0.72584078    -0.52100
C502        C  0.19663493  0.65439105  0.75346522     0.12000
H503        H  0.11714226  0.60567441  0.72288255     0.16500
H504        H  0.17108307  0.71504239  0.78159298     0.02200
H505        H  0.16537356  0.71650983  0.67756060     0.16800
H506        H  0.21136763  0.59569126  0.71942556     0.16600
C507        C  0.41601808  0.40097115  0.59114241     0.88400
C508        C  0.42062867  0.34585929  0.60505469    -0.51900
C509        C  0.39299847  0.32341900  0.61473850     0.11300
C510        C  0.36323953  0.35727058  0.60958178     0.22200
C511        C  0.39151881  0.39384717  0.56428762    -0.52600
C512        C  0.36365938  0.37037051  0.57405512     0.11400
C513        C  0.39853229  0.43235704  0.61698499    -0.52100
C514        C  0.37089554  0.40905485  0.62652181     0.12000
H515        H  0.44349636  0.32549948  0.60598236     0.16500
H516        H  0.34088546  0.33819483  0.61774404     0.02200
H517        H  0.39613604  0.40628707  0.54015271     0.16800
H518        H  0.40789238  0.46795726  0.62783010     0.16600
C519        C  0.02161406  0.59619020  0.83797363     0.88400
C520        C  0.01966984  0.65585804  0.84316764    -0.51900
C521        C  0.04868021  0.67871427  0.84719541     0.11300
C522        C  0.07693188  0.64042209  0.84568815     0.22200
C523        C  0.04391288  0.58883292  0.80957805    -0.52600
C524        C  0.07278716  0.61282151  0.81326236     0.11400
C525        C  0.04012445  0.57490659  0.86660679    -0.52100
C526        C  0.06910223  0.59829686  0.87068905     0.12000
H527        H  0.99747643  0.67819955  0.84289315     0.16500
H528        H  0.10040905  0.65950512  0.84947677     0.02200
H529        H  0.03693746  0.56871150  0.78789434     0.16800
H530        H  0.03071306  0.54562060  0.88282020     0.16600
In531      In  0.81083616  0.49305201  0.84974067     1.36900
C532        C  0.76331304  0.55719293  0.86559965     0.79500
O533        O  0.79570418  0.49060662  0.79859490    -0.59000
O534        O  0.79944663  0.41810178  0.82355640    -0.49900
C535        C  0.87026602  0.51757550  0.83505559     0.72100
O536        O  0.84791552  0.55097319  0.83407340    -0.44800
C537        C  0.81995625  0.45869244  0.90831632     0.76800
O538        O  0.78975087  0.57423257  0.85593827    -0.56600
O539        O  0.80776099  0.42979446  0.88717452    -0.46700
O540        O  0.76034551  0.50781457  0.86485327    -0.53000
C541        C  0.79364024  0.44111581  0.79771170     0.87000
O542        O  0.86215051  0.47151385  0.84245740    -0.54900
O543        O  0.82789758  0.50402485  0.89937905    -0.58200
C544        C  0.77899240  0.35901859  0.71487583     0.88400
C545        C  0.77837549  0.29964359  0.71976277    -0.51900
C546        C  0.77577412  0.27028472  0.69245893     0.11300
C547        C  0.77448009  0.30568602  0.66221961     0.22200
C548        C  0.80666023  0.36848066  0.69220893    -0.52600
C549        C  0.80444128  0.34138813  0.66414995     0.11400
C550        C  0.74896797  0.37201647  0.69586919    -0.52100
C551        C  0.74656316  0.34464847  0.66811677     0.12000
H552        H  0.78047555  0.28325575  0.74335507     0.16500
H553        H  0.77235633  0.28384897  0.63950887     0.02200
H554        H  0.82587230  0.39506250  0.69826657     0.16800
H555        H  0.73188214  0.40215193  0.70296462     0.16600
In556      In  0.62939664  0.48044609  0.60200029     1.36900
C557        C  0.67698619  0.41486992  0.61740040     0.79500
O558        O  0.64198947  0.48464861  0.55002668    -0.59000
O559        O  0.64619023  0.55431782  0.57766763    -0.49900
C560        C  0.56913262  0.46138938  0.58614051     0.72100
O561        O  0.58997923  0.42532004  0.58696193    -0.44800
C562        C  0.61752815  0.51567212  0.66018611     0.76800
O563        O  0.65100638  0.39845992  0.60602108    -0.56600
O564        O  0.62920801  0.54488276  0.63901215    -0.46700
O565        O  0.67927214  0.46426978  0.61902448    -0.53000
C566        C  0.64823994  0.53318293  0.55068524     0.87000
O567        O  0.57919619  0.50680387  0.59256488    -0.54900
O568        O  0.61212500  0.46897289  0.65170314    -0.58200
C569        C  0.66566952  0.61666430  0.96708810     0.88400
C570        C  0.66769016  0.67613159  0.97205119    -0.51900
C571        C  0.67002191  0.70514215  0.94466469     0.11300
C572        C  0.67043682  0.66971617  0.91448732     0.22200
C573        C  0.63742122  0.60877267  0.94452203    -0.52600
C574        C  0.64000116  0.63595854  0.91657180     0.11400
C575        C  0.69510950  0.60203232  0.94762136    -0.52100
C576        C  0.69747809  0.62929858  0.91988779     0.12000
H577        H  0.66687460  0.69284816  0.99566990     0.16500
H578        H  0.67259883  0.69100299  0.89167560     0.02200
H579        H  0.61751727  0.58343823  0.95036895     0.16800
H580        H  0.71154463  0.57063314  0.95421676     0.16600
C581        C  0.01947132  0.91936365  0.83552712     0.88400
C582        C  0.04297569  0.92824033  0.80831226    -0.51900
C583        C  0.07210884  0.90507112  0.81311745     0.11300
C584        C  0.07519892  0.87687677  0.84547363     0.22200
C585        C  0.01844132  0.85951249  0.84001380    -0.52600
C586        C  0.04763811  0.83759981  0.84530030     0.11400
C587        C  0.03612499  0.94049749  0.86521709    -0.52100
C588        C  0.06526915  0.91805369  0.87050476     0.12000
H589        H  0.03662300  0.94852329  0.78650276     0.16500
H590        H  0.09882623  0.85852954  0.85020911     0.02200
H591        H  0.99667317  0.83647291  0.83883701     0.16800
H592        H  0.02529793  0.96884576  0.88132572     0.16600
C593        C  0.41826915  0.09102254  0.59118264     0.88400
C594        C  0.39363981  0.09852553  0.56429843    -0.51900
C595        C  0.36552667  0.12172319  0.57423299     0.11300
C596        C  0.36497769  0.13380387  0.60994784     0.22200
C597        C  0.42225110  0.14597584  0.60557072    -0.52600
C598        C  0.39435609  0.16794020  0.61536800     0.11400
C599        C  0.40104563  0.05906491  0.61675393    -0.52100
C600        C  0.37319792  0.08184271  0.62655430     0.12000
H601        H  0.39845963  0.08711866  0.53997897     0.16500
H602        H  0.34246106  0.15251514  0.61830697     0.02200
H603        H  0.44486641  0.16673092  0.60652716     0.16800
H604        H  0.41098635  0.02379760  0.62760374     0.16600
In605      In  0.80444679  0.98967433  0.85206047     1.36900
C606        C  0.76257544  0.91580733  0.86715601     0.79500
O607        O  0.82220788  0.98070924  0.90153284    -0.59000
O608        O  0.79879467  0.05264151  0.88944348    -0.49900
C609        C  0.86524150  0.97828484  0.83652130     0.72100
O610        O  0.84557532  0.94102823  0.83412612    -0.44800
C611        C  0.78350568  0.04120675  0.80129706     0.76800
O612        O  0.79041537  0.90453770  0.85812588    -0.56600
O613        O  0.78550055  0.06251820  0.82820454    -0.46700
O614        O  0.75552163  0.96409602  0.86633344    -0.53000
C615        C  0.81300898  0.02566736  0.91029248     0.87000
O616        O  0.85375206  0.02145770  0.84589369    -0.54900
O617        O  0.79073208  0.99295369  0.80048927    -0.58200
C618        C  0.77428269  0.12383283  0.71870588     0.88400
C619        C  0.80561392  0.11348390  0.70151424    -0.51900
C620        C  0.80813449  0.13820504  0.67303716     0.11300
C621        C  0.77852972  0.17261544  0.66448030     0.22200
C622        C  0.77201482  0.18362342  0.72162894    -0.52600
C623        C  0.77472527  0.21061317  0.69341770     0.11400
C624        C  0.74815883  0.10863498  0.69538924    -0.52100
C625        C  0.75006578  0.13376457  0.66694303     0.12000
H626        H  0.82426892  0.08804069  0.71097283     0.16500
H627        H  0.78031396  0.19274226  0.64124905     0.02200
H628        H  0.76870250  0.20196696  0.74458144     0.16800
H629        H  0.72997901  0.07954093  0.70068675     0.16600
In630      In  0.63224007  0.99994910  0.60325538     1.36900
C631        C  0.68112661  0.06458334  0.61621247     0.79500
O632        O  0.61751461  0.01046792  0.65402302    -0.59000
O633        O  0.63336297  0.93444702  0.63961976    -0.49900
C634        C  0.57188141  0.02426784  0.58839792     0.72100
O635        O  0.59441729  0.05652145  0.58479696    -0.44800
C636        C  0.64859080  0.94368856  0.55206646     0.76800
O637        O  0.65349927  0.08152597  0.61002144    -0.56600
O638        O  0.64649095  0.92371148  0.57929910    -0.46700
O639        O  0.68411004  0.01527163  0.61436638    -0.53000
C640        C  0.62276064  0.96326574  0.66166000     0.87000
O641        O  0.58022415  0.97989275  0.59885270    -0.54900
O642        O  0.64316676  0.99254303  0.55097286    -0.58200
C643        C  0.66842032  0.85341090  0.96761936     0.88400
C644        C  0.64050809  0.86371468  0.94490306    -0.51900
C645        C  0.64255089  0.83627344  0.91691598     0.11300
C646        C  0.67216873  0.80011298  0.91487584     0.22200
C647        C  0.66892731  0.79375509  0.97239174    -0.52600
C648        C  0.67070942  0.76467457  0.94486363     0.11400
C649        C  0.69828575  0.86549762  0.94836883    -0.52100
C650        C  0.70016290  0.83808936  0.92060488     0.12000
H651        H  0.62122190  0.89067654  0.95070601     0.16500
H652        H  0.67396359  0.77874382  0.89200833     0.02200
H653        H  0.66756938  0.77704192  0.99594767     0.16800
H654        H  0.71534190  0.89570834  0.95504514     0.16600
C655        C  0.52175944  0.89967859  0.83924718     0.88400
C656        C  0.52035676  0.84005181  0.83401219    -0.51900
C657        C  0.54937835  0.81770056  0.82858584     0.11300
C658        C  0.57722992  0.85654026  0.82889987     0.22200
C659        C  0.54536027  0.90734700  0.86659775    -0.52600
C660        C  0.57435913  0.88389058  0.86160316     0.11400
C661        C  0.53851209  0.92146585  0.80984938    -0.52100
C662        C  0.56756349  0.89872041  0.80434108     0.12000
H663        H  0.49846297  0.81733455  0.83512655     0.16500
H664        H  0.60072265  0.83789169  0.82400663     0.02200
H665        H  0.53913817  0.92710244  0.88863641     0.16800
H666        H  0.52788696  0.95063578  0.79417066     0.16600
C667        C  0.92173529  0.09908065  0.58816920     0.88400
C668        C  0.92509494  0.15664602  0.57809388    -0.51900
C669        C  0.89730540  0.17871868  0.56802996     0.11300
C670        C  0.86865582  0.14184163  0.56866464     0.22200
C671        C  0.89521836  0.09981730  0.61354022    -0.52600
C672        C  0.86721740  0.12287913  0.60311882     0.11400
C673        C  0.90702757  0.07107168  0.55940901    -0.52100
C674        C  0.87921854  0.09370650  0.54937476     0.12000
H675        H  0.94714078  0.17878869  0.58021167     0.16500
H676        H  0.84621314  0.16055143  0.56007353     0.02200
H677        H  0.89865714  0.08418010  0.63722075     0.16800
H678        H  0.91797435  0.03748381  0.54759412     0.16600
In679      In  0.13517786  0.01455995  0.57289352     1.36900
C680        C  0.18420591  0.07707826  0.55794351     0.79500
O681        O  0.14937652  0.01097413  0.62445670    -0.59000
O682        O  0.14901272  0.93943270  0.59819685    -0.49900
C683        C  0.07538514  0.03622142  0.59035829     0.72100
O684        O  0.09645780  0.07152839  0.58839014    -0.44800
C685        C  0.12254436  0.98108716  0.51420526     0.76800
O686        O  0.15809007  0.09527571  0.56816791    -0.56600
O687        O  0.13674126  0.95237693  0.53424726    -0.46700
O688        O  0.18576233  0.02752375  0.55702323    -0.53000
C689        C  0.15314017  0.96166043  0.62465602     0.87000
O690        O  0.08500263  0.99025836  0.58414661    -0.54900
O691        O  0.11492094  0.02623949  0.52410377    -0.58200
C692        C  0.16618286  0.87743075  0.70722767     0.88400
C693        C  0.16695856  0.81790069  0.70177751    -0.51900
C694        C  0.16867951  0.78829850  0.72897850     0.11300
C695        C  0.16973224  0.82295352  0.75938416     0.22200
C696        C  0.13805974  0.88690391  0.72975603    -0.52600
C697        C  0.14002785  0.85879212  0.75743437     0.11400
C698        C  0.19589480  0.88942236  0.72698119    -0.52100
C699        C  0.19760069  0.86128924  0.75447137     0.12000
H700        H  0.16585162  0.80152649  0.67806769     0.16500
H701        H  0.17140989  0.80124391  0.78208436     0.02200
H702        H  0.11867131  0.91376258  0.72409006     0.16800
H703        H  0.21300614  0.91973246  0.72076773     0.16600
In704      In  0.30951500  0.99180713  0.82899464     1.36900
C705        C  0.26264477  0.92845526  0.81140166     0.79500
O706        O  0.29362602  0.99790614  0.87979525    -0.59000
O707        O  0.29603211  0.06823933  0.85256592    -0.49900
C708        C  0.36878827  0.96874829  0.84552058     0.72100
O709        O  0.34671813  0.93520455  0.84718705    -0.44800
C710        C  0.32148748  0.02278488  0.77049794     0.76800
O711        O  0.28817532  0.91087447  0.82328121    -0.56600
O712        O  0.30850877  0.05310578  0.79049696    -0.46700
O713        O  0.26006171  0.97790913  0.81109741    -0.53000
C714        C  0.29050689  0.04731810  0.87904904     0.87000
O715        O  0.36032549  0.01413491  0.83682790    -0.54900
O716        O  0.32864639  0.97756907  0.78050279    -0.58200
C717        C  0.27612418  0.13419755  0.96004078     0.88400
C718        C  0.27521473  0.19353887  0.95485322    -0.51900
C719        C  0.27344453  0.22323542  0.98211423     0.11300
C720        C  0.28122950  0.18238075  0.50817877     0.22200
C721        C  0.30448469  0.12480026  0.98203461    -0.52600
C722        C  0.31121583  0.14779935  0.50107296     0.11400
C723        C  0.24669944  0.12180849  0.97984512    -0.52100
C724        C  0.25311159  0.14303134  0.50542142     0.12000
H725        H  0.27656928  0.20963283  0.93114000     0.16500
H726        H  0.28224863  0.20325952  0.53126514     0.02200
H727        H  0.32363427  0.09806730  0.97558887     0.16800
H728        H  0.22940830  0.09191645  0.97325383     0.16600
C729        C  0.28253569  0.07781461  0.90670205    -0.11400
C730        C  0.27834663  0.10346631  0.93048722    -0.13000
C731        C  0.22027670  0.87497069  0.77887819    -0.11400
C732        C  0.23932354  0.89541713  0.79643033    -0.13000
C733        C  0.16387722  0.90816129  0.67759947    -0.11400
C734        C  0.16022678  0.93271741  0.65326310    -0.13000
C735        C  0.23045928  0.13006183  0.53017847    -0.11400
C736        C  0.20962748  0.10964173  0.54576355    -0.13000
C737        C  0.95292060  0.07713832  0.59789770    -0.16600
C738        C  0.98071961  0.06519652  0.60130376     0.07400
C739        C  0.01408467  0.05517644  0.60102512     0.09300
C740        C  0.04240217  0.04732161  0.59773402    -0.17500
C741        C  0.48999449  0.92196152  0.84515905    -0.16600
C742        C  0.46260843  0.93488201  0.84917231     0.07400
C743        C  0.42979584  0.94646381  0.85178566     0.09300
C744        C  0.40162821  0.95589633  0.85106817    -0.17500
C745        C  0.61972309  0.84144599  0.88998348    -0.14600
C746        C  0.59844779  0.88117502  0.88737592    -0.29700
H747        H  0.62074036  0.81121053  0.87180773     0.14500
H748        H  0.59703351  0.91122157  0.90562784     0.15000
C749        C  0.61628555  0.94401452  0.69309984    -0.16600
C750        C  0.60872260  0.93108318  0.71960683     0.07400
C751        C  0.59739761  0.91865077  0.75032678     0.09300
C752        C  0.58534502  0.90930705  0.77570762    -0.17500
C753        C  0.65574610  0.91279623  0.52418325    -0.11400
C754        C  0.66620851  0.88379605  0.99748251    -0.13000
C755        C  0.70677723  0.09803603  0.62715661    -0.11400
C756        C  0.72775675  0.11976983  0.64199564    -0.13000
C757        C  0.83749565  0.13051147  0.65395897    -0.14600
C758        C  0.83792276  0.13251682  0.62226115    -0.29700
H759        H  0.85906279  0.11982892  0.66670767     0.14500
H760        H  0.81619624  0.14273370  0.60960726     0.15000
C761        C  0.81948777  0.04466433  0.94159739    -0.16600
C762        C  0.82834772  0.05675232  0.96775503     0.07400
C763        C  0.84180508  0.06839570  0.99755448     0.09300
C764        C  0.86249199  0.07690684  0.52139579    -0.17500
C765        C  0.77555145  0.07057642  0.77326095    -0.11400
C766        C  0.77280800  0.09549880  0.74905031    -0.13000
C767        C  0.74119009  0.87759046  0.88026054    -0.11400
C768        C  0.72270066  0.85360285  0.89661348    -0.13000
C769        C  0.33789743  0.13696822  0.55362738    -0.14600
C770        C  0.33940670  0.13857420  0.52186310    -0.29700
H771        H  0.31557979  0.14702783  0.56522727     0.14500
H772        H  0.36151662  0.12787494  0.51013789     0.15000
C773        C  0.35685251  0.06529737  0.65471267    -0.16600
C774        C  0.34544609  0.05588057  0.68021755     0.07400
C775        C  0.33485045  0.04690131  0.71138422     0.09300
C776        C  0.32784009  0.03793141  0.73848175    -0.17500
C777        C  0.44955169  0.06892385  0.58199343    -0.16600
C778        C  0.47731741  0.05656613  0.57896696     0.07400
C779        C  0.51059934  0.04583493  0.57927170     0.09300
C780        C  0.53887460  0.03701773  0.58208297    -0.17500
C781        C  0.11702911  0.86299352  0.78416468    -0.14600
C782        C  0.09623565  0.90323872  0.78747438    -0.29700
H783        H  0.11757590  0.83169867  0.80166091     0.14500
H784        H  0.09527837  0.93436965  0.76990443     0.15000
C785        C  0.08269997  0.92748734  0.89948399    -0.16600
C786        C  0.09429178  0.93607666  0.92517804     0.07400
C787        C  0.10500081  0.94794397  0.95617738     0.09300
C788        C  0.11213108  0.96034966  0.98289518    -0.17500
C789        C  0.89861942  0.97166242  0.83039666    -0.16600
C790        C  0.92697635  0.96513742  0.82797480     0.07400
C791        C  0.96001134  0.95460535  0.82800293     0.09300
C792        C  0.98758142  0.94159308  0.83027389    -0.17500
C793        C  0.65585611  0.56276499  0.52254604    -0.11400
C794        C  0.66263878  0.58684184  0.99696491    -0.13000
C795        C  0.72224334  0.35884024  0.64515603    -0.11400
C796        C  0.70151041  0.38052744  0.62990595    -0.13000
C797        C  0.78622731  0.41290819  0.76905921    -0.11400
C798        C  0.78194654  0.38894743  0.74466708    -0.13000
C799        C  0.73933441  0.59081640  0.87932670    -0.11400
C800        C  0.72004860  0.61306786  0.89590622    -0.13000
C801        C  0.05211347  0.73466441  0.84949481    -0.11400
C802        C  0.05181843  0.78191086  0.84879964    -0.13000
C803        C  0.90292060  0.53137629  0.82983827    -0.16600
C804        C  0.93069507  0.54303036  0.82871171     0.07400
C805        C  0.96300752  0.55780103  0.83042077     0.09300
C806        C  0.99003106  0.57286629  0.83347888    -0.17500
C807        C  0.39166422  0.26929971  0.62349576    -0.11400
C808        C  0.39219619  0.22222173  0.62374735    -0.13000
C809        C  0.44681711  0.42344818  0.58170475    -0.16600
C810        C  0.47437218  0.43542956  0.57784153     0.07400
C811        C  0.50760046  0.44478858  0.57726100     0.09300
C812        C  0.53597374  0.45166337  0.57973201    -0.17500
C813        C  0.11629804  0.65558469  0.78327858    -0.14600
C814        C  0.09582595  0.61536020  0.78676172    -0.29700
H815        H  0.11707449  0.68673361  0.80091112     0.14500
H816        H  0.09464827  0.58437886  0.76905297     0.15000
C817        C  0.12206531  0.55680546  0.98032628    -0.16600
C818        C  0.11447787  0.56912663  0.95370672     0.07400
C819        C  0.10202256  0.58036762  0.92324142     0.09300
C820        C  0.08852298  0.58858294  0.89841083    -0.17500
C821        C  0.15985396  0.58298925  0.65275537    -0.11400
C822        C  0.16265796  0.60910717  0.67664013    -0.13000
C823        C  0.22913713  0.36962174  0.53109565    -0.11400
C824        C  0.20931865  0.39299189  0.54669483    -0.13000
C825        C  0.33728583  0.35766755  0.52172033    -0.14600
C826        C  0.33592166  0.35715098  0.55345538    -0.29700
H827        H  0.35933639  0.36819675  0.50997538     0.14500
H828        H  0.31362607  0.34726350  0.56502076     0.15000
C829        C  0.35328713  0.42620676  0.65379106    -0.16600
C830        C  0.34013443  0.43617215  0.67837213     0.07400
C831        C  0.32739338  0.44621308  0.70857691     0.09300
C832        C  0.31924016  0.45675111  0.73513544    -0.17500
C833        C  0.27119761  0.39825639  0.92570374    -0.11400
C834        C  0.27410030  0.42380842  0.90180771    -0.13000
C835        C  0.21921211  0.63913218  0.77762825    -0.11400
C836        C  0.23786056  0.61622582  0.79456176    -0.13000
C837        C  0.89436798  0.28130229  0.56434066    -0.11400
C838        C  0.89444284  0.23417595  0.56319098    -0.13000
C839        C  0.84959462  0.38637217  0.63643327    -0.14600
C840        C  0.82715645  0.34819511  0.63715544    -0.29700
H841        H  0.85224664  0.41322888  0.65619532     0.14500
H842        H  0.82496087  0.32105898  0.61740153     0.15000
C843        C  0.82452846  0.44213169  0.94047467    -0.16600
C844        C  0.83026374  0.43359221  0.96798459     0.07400
C845        C  0.84004456  0.42757223  0.99977183     0.09300
C846        C  0.85683085  0.42943231  0.52602830    -0.17500
C847        C  0.95509934  0.44036722  0.59076530    -0.16600
C848        C  0.98278190  0.45310130  0.59241677     0.07400
C849        C  0.01593757  0.46338914  0.59199996     0.09300
C850        C  0.04429106  0.47074702  0.58975096    -0.17500
C851        C  0.55218611  0.71449980  0.82556835    -0.11400
C852        C  0.55303052  0.76177368  0.82550070    -0.13000
C853        C  0.59557886  0.59290477  0.88693824    -0.16200
C854        C  0.61703324  0.63203867  0.88970013    -0.29700
H855        H  0.59418060  0.56256931  0.90495744     0.14500
H856        H  0.61812561  0.66249847  0.87171423     0.15000
C857        C  0.61041541  0.53383962  0.69171095    -0.16600
C858        C  0.60283951  0.54578057  0.71838683     0.07400
C859        C  0.59196740  0.55722375  0.74939178     0.09300
C860        C  0.58052844  0.56607707  0.77511801    -0.17500
C861        C  0.48609785  0.55831616  0.84554769    -0.16600
C862        C  0.45846170  0.54667559  0.84877154     0.07400
C863        C  0.42535753  0.53719844  0.84980695     0.09300
C864        C  0.39698863  0.53063530  0.84775037    -0.17500
loop_ 
_geom_bond_atom_site_label_1 
_geom_bond_atom_site_label_2 
_geom_bond_distance 
_geom_bond_site_symmetry_2 
_ccdc_geom_bond_type 
C1            C2   1.530       .  S
C1            C7   1.531       .  S
C1            C5   1.532       .  S
C1          C429   1.464       .  S
C2            H9   1.087       .  S
C2            C3   1.367       .  D
C3            C4   1.547       .  S
C3          C421   1.482       .  S
C4            C8   1.541       .  S
C4            C6   1.530       .  S
C4           H10   1.110       .  S
C5           H11   1.087       .  S
C5            C6   1.360       .  D
C6          C419   1.432       .  S
C7           H12   1.087       .  S
C7            C8   1.364       .  D
C8          C428   1.445       .  S
C13          C14   1.534       .  S
C13          C19   1.532       .  S
C13          C17   1.531       .  S
C13         C415   1.471       .  S
C14          H21   1.086       .  S
C14          C15   1.371       .  D
C15          C16   1.544       .  S
C15         C407   1.486       .  S
C16          C20   1.536       .  S
C16          C18   1.527       .  S
C16          H22   1.110       .  S
C17          H23   1.087       .  S
C17          C18   1.359       .  D
C18         C405   1.428       .  S
C19          H24   1.087       .  S
C19          C20   1.365       .  D
C20         C414   1.439       .  S
In25         O27   2.226       .  S
In25         O28   2.250       .  S
In25         O36   2.234       .  S
In25         O30   2.251       .  S
In25         O32   2.260       .  S
In25         O33   2.244       .  S
In25         O34   2.240       .  S
In25         O37   2.252       .  S
C26          O32   1.260       .  A
C26          O34   1.259       .  A
C26         C404   1.437       .  S
O27          C35   1.258       .  A
O28          C35   1.261       .  A
C29          O36   1.257       .  A
C29          O30   1.262       .  A
C29         C432   1.432       .  S
C31          O33   1.258       .  A
C31          O37   1.260       .  A
C31         C402   1.436       .  S
C35         C400   1.429       .  S
C38          C39   1.523       .  S
C38          C44   1.522       .  S
C38          C42   1.523       .  S
C38         C401   1.471       .  S
C39          H46   1.087       .  S
C39         C472   1.361       .  D
C40          C41   1.555       .  S
C40         C471   1.360   1_554  D
C40         C393   1.482       .  S
C41          C45   1.553       .  S
C41         C475   1.561   1_554  S
C41          H47   1.108       .  S
C42          H48   1.081       .  S
C42          C43   1.380       .  D
C43         C473   1.562       .  S
C43         C287   1.518       .  S
C44          H49   1.087       .  S
C44         C477   1.362       .  D
C45         C476   1.362   1_554  D
C45         C391   1.451       .  S
In50         O52   2.240       .  S
In50         O53   2.264       .  S
In50         O61   2.246       .  S
In50         O55   2.259       .  S
In50         O57   2.276       .  S
In50         O58   2.257       .  S
In50         O59   2.252       .  S
In50         O62   2.259       .  S
C51          O57   1.261       .  A
C51          O59   1.259       .  A
C51         C392   1.446       .  S
O52          C60   1.258       .  A
O53          C60   1.262       .  A
C54          O61   1.259       .  A
C54          O55   1.263       .  A
C54         C418   1.440       .  S
C56          O58   1.260       .  A
C56          O62   1.260       .  A
C56         C389   1.444       .  S
C60         C817   1.438   1_554  S
C63          C64   1.532       .  S
C63          C69   1.527       .  S
C63          C67   1.528       .  S
C63         C390   1.478       .  S
C64          H71   1.084       .  S
C64          C65   1.371       .  D
C65          C66   1.542       .  S
C65         C381   1.489       .  S
C66          C70   1.540       .  S
C66          C68   1.554       .  S
C66          H72   1.108       .  S
C67          H73   1.082       .  S
C67          C68   1.376       .  D
C68         C262   1.510       .  S
C69          H74   1.087       .  S
C69          C70   1.363       .  D
C70         C403   1.444       .  S
C75          C76   1.529       .  S
C75          C81   1.533       .  S
C75          C79   1.541       .  S
C75         C377   1.470       .  S
C76          H83   1.087       .  S
C76          C77   1.357       .  D
C77          C78   1.526       .  S
C77         C375   1.425       .  S
C78          C82   1.530       .  S
C78          C80   1.533       .  S
C78          H84   1.112       .  S
C79          H85   1.084       .  S
C79          C80   1.379       .  D
C80         C394   1.488       .  S
C81          H86   1.087       .  S
C81          C82   1.363       .  D
C82         C397   1.435       .  S
C87          C88   1.531       .  S
C87          C93   1.532       .  S
C87          C91   1.532       .  S
C87         C374   1.469   1_455  S
C88          H95   1.087       .  S
C88          C89   1.360       .  D
C89          C90   1.529       .  S
C89         C369   1.431       .  S
C90          C94   1.539       .  S
C90          C92   1.545       .  S
C90          H96   1.110       .  S
C91          H97   1.087       .  S
C91          C92   1.367       .  D
C92         C382   1.483       .  S
C93          H98   1.087       .  S
C93          C94   1.366       .  D
C94         C388   1.442       .  S
In99        O101   2.256       .  S
In99        O102   2.255       .  S
In99        O110   2.239       .  S
In99        O104   2.253       .  S
In99        O106   2.259       .  S
In99        O107   2.257       .  S
In99        O108   2.243       .  S
In99        O111   2.225       .  S
C100        O106   1.261       .  A
C100        O108   1.259       .  A
C100        C367   1.439       .  S
O101        C109   1.260       .  A
O102        C109   1.260       .  A
C103        O110   1.258       .  A
C103        O104   1.262       .  A
C103        C371   1.436       .  S
C105        O107   1.263       .  A
C105        O111   1.257       .  A
C105        C411   1.431       .  S
C109        C365   1.442       .  S
C112        C113   1.524       .  S
C112        C118   1.527       .  S
C112        C116   1.528       .  S
C112        C366   1.477       .  S
C113        H120   1.082       .  S
C113        C114   1.376       .  D
C114        C115   1.558       .  S
C114        C191   1.514       .  S
C115        C119   1.546       .  S
C115        C117   1.550       .  S
C115        H121   1.109       .  S
C116        H122   1.083       .  S
C116        C117   1.371       .  D
C117        C408   1.494       .  S
C118        H123   1.087       .  S
C118        C119   1.364       .  D
C119        C363   1.447       .  S
In124       O126   2.255       .  S
In124       O127   2.258       .  S
In124       O135   2.242       .  S
In124       O129   2.255       .  S
In124       O131   2.264       .  S
In124       O132   2.263       .  S
In124       O133   2.243       .  S
In124       O136   2.241       .  S
C125        O131   1.261       .  A
C125        O133   1.260       .  A
C125        C364   1.441       .  S
O126        C134   1.260       .  A
O127        C134   1.261       .  A
C128        O135   1.258       .  A
C128        O129   1.262       .  A
C128        C380   1.438       .  S
C130        O132   1.263       .  A
C130        O136   1.258       .  A
C130        C425   1.439       .  S
C134        C361   1.443       .  S
C137        C138   1.528       .  S
C137        C143   1.528       .  S
C137        C141   1.531       .  S
C137        C362   1.476       .  S
C138        H145   1.083       .  S
C138        C139   1.375       .  D
C139        C140   1.556       .  S
C139        C216   1.509       .  S
C140        C144   1.541       .  S
C140        C142   1.542       .  S
C140        H146   1.107       .  S
C141        H147   1.084       .  S
C141        C142   1.371       .  D
C142        C422   1.489       .  S
C143        H148   1.087       .  S
C143        C144   1.363       .  D
C144        C368   1.445       .  S
C149        C150   1.531       .  S
C149        C155   1.532       .  S
C149        C153   1.530       .  S
C149        C360   1.469   1_455  S
C150        H157   1.087       .  S
C150        C151   1.368       .  D
C151        C152   1.547       .  S
C151        C350   1.485       .  S
C152        C156   1.543       .  S
C152        C154   1.530       .  S
C152        H158   1.110       .  S
C153        H159   1.087   1_455  S
C153        C154   1.360       .  D
C154        C370   1.430       .  S
C155        H160   1.086       .  S
C155        C156   1.366       .  D
C156        C353   1.448       .  S
C161        C162   1.536       .  S
C161        C167   1.534       .  S
C161        C165   1.530       .  S
C161        C345   1.473       .  S
C162        H169   1.086       .  S
C162        C163   1.372       .  D
C163        C164   1.542       .  S
C163        C337   1.487       .  S
C164        C168   1.534       .  S
C164        C166   1.526       .  S
C164        H170   1.110       .  S
C165        H171   1.087       .  S
C165        C166   1.358       .  D
C166        C376   1.425       .  S
C167        H172   1.086       .  S
C167        C168   1.366       .  D
C168        C341   1.439       .  S
In173       O175   2.227       .  S
In173       O176   2.250   1_565  S
In173       O184   2.237   1_565  S
In173       O178   2.255       .  S
In173       O180   2.260       .  S
In173       O181   2.251   1_565  S
In173       O182   2.241       .  S
In173       O185   2.250       .  S
C174        O180   1.260       .  A
C174        O182   1.259       .  A
C174        C335   1.438       .  S
O175        C183   1.258   1_565  A
O176        C183   1.262       .  A
C177        O184   1.258   1_565  A
C177        O178   1.262       .  A
C177        C357   1.435       .  S
C179        O181   1.259       .  A
C179        O185   1.260   1_545  A
C179        C333   1.437       .  S
C183        C329   1.430       .  S
C186        C187   1.525       .  S
C186        C192   1.523       .  S
C186        C190   1.523       .  S
C186        C334   1.471       .  S
C187        H194   1.087       .  S
C187        C188   1.361       .  D
C188        C189   1.552       .  S
C188        C325   1.482       .  S
C189        C193   1.551       .  S
C189        C191   1.563       .  S
C189        H195   1.108       .  S
C190        H196   1.082       .  S
C190        C191   1.377       .  D
C192        H197   1.087       .  S
C192        C193   1.363       .  D
C193        C324   1.449       .  S
In198       O200   2.240   1_565  S
In198       O201   2.267       .  S
In198       O209   2.249       .  S
In198       O203   2.259   1_565  S
In198       O205   2.267   1_565  S
In198       O206   2.260       .  S
In198       O207   2.252   1_565  S
In198       O210   2.260       .  S
C199        O205   1.260       .  A
C199        O207   1.260       .  A
C199        C323   1.444       .  S
O200        C208   1.258   1_545  A
O201        C208   1.262       .  A
C202        O209   1.259   1_545  A
C202        O203   1.262       .  A
C202        C348   1.441       .  S
C204        O206   1.260       .  A
C204        O210   1.260       .  A
C204        C321   1.444       .  S
C208        C317   1.440       .  S
C211        C212   1.532       .  S
C211        C217   1.528       .  S
C211        C215   1.528       .  S
C211        C322   1.477       .  S
C212        H219   1.085       .  S
C212        C213   1.371       .  D
C213        C214   1.540       .  S
C213        C313   1.487       .  S
C214        C218   1.540       .  S
C214        C216   1.554       .  S
C214        H220   1.107       .  S
C215        H221   1.083       .  S
C215        C216   1.376       .  D
C217        H222   1.087       .  S
C217        C218   1.363       .  D
C218        C336   1.444       .  S
C223        C224   1.531       .  S
C223        C229   1.532       .  S
C223        C227   1.531       .  S
C223        C309   1.468       .  S
C224        H231   1.087       .  S
C224        C225   1.360       .  D
C225        C226   1.531       .  S
C225        C420   1.432       .  S
C226        C230   1.541       .  S
C226        C228   1.546       .  S
C226        H232   1.110       .  S
C227        H233   1.087       .  S
C227        C228   1.367       .  D
C228        C314   1.482       .  S
C229        H234   1.086       .  S
C229        C230   1.366       .  D
C230        C320   1.446       .  S
C235        C236   1.529       .  S
C235        C241   1.533       .  S
C235        C239   1.541       .  S
C235        C305   1.472       .  S
C236        H243   1.087       .  S
C236        C237   1.358       .  D
C237        C238   1.527       .  S
C237        C406   1.427       .  S
C238        C242   1.532       .  S
C238        C240   1.534       .  S
C238        H244   1.112       .  S
C239        H245   1.084       .  S
C239        C240   1.378       .  D
C240        C326   1.488       .  S
C241        H246   1.087       .  S
C241        C242   1.364       .  D
C242        C332   1.437       .  S
In247       O249   2.256       .  S
In247       O250   2.254   1_545  S
In247       O258   2.246   1_545  S
In247       O252   2.263       .  S
In247       O254   2.274       .  S
In247       O255   2.257   1_545  S
In247       O256   2.248       .  S
In247       O259   2.240       .  S
C248        O254   1.262       .  A
C248        O256   1.259       .  A
C248        C304   1.446       .  S
O249        C257   1.261   1_545  A
O250        C257   1.260       .  A
C251        O258   1.258   1_545  A
C251        O252   1.263       .  A
C251        C308   1.441       .  S
C253        O255   1.262       .  A
C253        O259   1.259   1_565  A
C253        C788   1.437   1_554  S
C257        C302   1.442       .  S
C260        C261   1.527       .  S
C260        C266   1.528       .  S
C260        C264   1.532       .  S
C260        C301   1.477       .  S
C261        H268   1.082       .  S
C261        C262   1.375       .  D
C262        C263   1.556       .  S
C263        C267   1.542       .  S
C263        C265   1.544       .  S
C263        H269   1.108       .  S
C264        H270   1.084       .  S
C264        C265   1.372       .  D
C265        C349   1.492       .  S
C266        H271   1.087       .  S
C266        C267   1.363       .  D
C267        C299   1.447       .  S
In272       O274   2.248   1_565  S
In272       O275   2.254   1_565  S
In272       O283   2.245   1_565  S
In272       O277   2.253       .  S
In272       O279   2.267       .  S
In272       O280   2.255   1_565  S
In272       O281   2.235       .  S
In272       O284   2.226       .  S
C273        O279   1.262       .  A
C273        O281   1.259       .  A
C273        C300   1.440       .  S
O274        C282   1.260       .  A
O275        C282   1.260       .  A
C276        O283   1.258   1_565  A
C276        O277   1.262       .  A
C276        C312   1.437       .  S
C278        O280   1.263       .  A
C278        O284   1.258   1_545  A
C278        C344   1.432       .  S
C282        C297   1.438       .  S
C285        C286   1.521       .  S
C285        C291   1.525       .  S
C285        C289   1.523       .  S
C285        C298   1.472       .  S
C286        H293   1.081       .  S
C286        C287   1.377       .  D
C287        C720   1.566       .  S
C288        C292   1.549       .  S
C288        C290   1.554       .  S
C288        C719   1.561   1_554  S
C288        H294   1.109       .  S
C289        H295   1.087       .  S
C289        C722   1.361       .  D
C290        C721   1.370   1_554  D
C290        C338   1.496       .  S
C291        H296   1.087       .  S
C291        C724   1.364       .  D
C292        C723   1.363   1_554  D
C292        C303   1.451       .  S
C297        C298   1.208       .  T
C299        C300   1.209       .  T
C301        C302   1.210       .  T
C303        C304   1.212       .  T
C305        C306   1.209       .  T
C306        C307   1.417   1_655  S
C307        C308   1.209       .  T
C309        C310   1.206       .  T
C310        C311   1.413       .  S
C311        C312   1.206       .  T
C313        H315   1.084       .  S
C313        C314   1.346       .  D
C314        H316   1.084       .  S
C317        C318   1.208       .  T
C318        C319   1.416       .  S
C319        C320   1.208       .  T
C321        C754   1.211   1_554  T
C322        C753   1.211       .  T
C323        C324   1.211       .  T
C325        H327   1.085       .  S
C325        C326   1.340       .  D
C326        H328   1.085       .  S
C329        C330   1.203       .  T
C330        C331   1.407       .  S
C331        C764   1.203       .  T
C332        C763   1.203   1_554  T
C333        C334   1.207       .  T
C335        C336   1.207       .  T
C337        H339   1.081       .  S
C337        C338   1.354       .  D
C338        H340   1.083       .  S
C341        C342   1.204       .  T
C342        C343   1.409       .  S
C343        C344   1.204       .  T
C345        C346   1.209       .  T
C346        C347   1.417       .  S
C347        C348   1.209       .  T
C349        H351   1.085       .  S
C349        C350   1.348       .  D
C350        H352   1.084       .  S
C353        C354   1.210       .  T
C354        C355   1.419       .  S
C355        C356   1.210       .  T
C356        C685   1.442       .  S
C357        C358   1.206       .  T
C358        C359   1.412       .  S
C359        C360   1.206       .  T
C361        C794   1.210   1_554  T
C362        C793   1.210       .  T
C363        C364   1.209       .  T
C365        C366   1.210       .  T
C367        C368   1.208       .  T
C369        C370   1.199       .  T
C371        C372   1.206       .  T
C372        C373   1.413       .  S
C373        C374   1.206       .  T
C375        C376   1.196       .  T
C377        C378   1.207       .  T
C378        C379   1.414       .  S
C379        C380   1.207       .  T
C381        H383   1.084       .  S
C381        C382   1.347       .  D
C382        H384   1.084       .  S
C385        C492   1.435       .  S
C385        C386   1.206       .  T
C386        C387   1.412       .  S
C387        C388   1.206       .  T
C389        C390   1.211       .  T
C391        C392   1.212       .  T
C393        H395   1.085       .  S
C393        C394   1.338       .  D
C394        H396   1.085       .  S
C397        C398   1.202       .  T
C398        C399   1.406       .  S
C399        C400   1.202       .  T
C401        C402   1.207       .  T
C403        C404   1.207       .  T
C405        C406   1.197       .  T
C407        H409   1.083       .  S
C407        C408   1.352       .  D
C408        H410   1.084       .  S
C411        C412   1.203       .  T
C412        C413   1.408       .  S
C413        C846   1.203       .  T
C414        C845   1.204   1_554  T
C415        C416   1.208       .  T
C416        C417   1.415   1_655  S
C417        C418   1.208       .  T
C419        C420   1.200       .  T
C421        H423   1.084       .  S
C421        C422   1.347       .  D
C422        H424   1.085       .  S
C425        C426   1.208       .  T
C426        C427   1.416       .  S
C427        C428   1.208       .  T
C429        C430   1.204       .  T
C430        C431   1.408       .  S
C431        C432   1.203       .  T
C433        C434   1.531       .  S
C433        C439   1.531       .  S
C433        C437   1.532       .  S
C433        C861   1.467       .  S
C434        H441   1.087       .  S
C434        C435   1.368       .  D
C435        C436   1.546       .  S
C435        C853   1.483       .  S
C436        C440   1.541       .  S
C436        C438   1.529       .  S
C436        H442   1.110       .  S
C437        H443   1.087       .  S
C437        C438   1.361       .  D
C438        C851   1.432       .  S
C439        H444   1.087       .  S
C439        C440   1.364       .  D
C440        C860   1.444       .  S
C445        C446   1.535       .  S
C445        C451   1.531       .  S
C445        C449   1.531       .  S
C445        C847   1.471       .  S
C446        H453   1.086       .  S
C446        C447   1.372       .  D
C447        C448   1.542       .  S
C447        C839   1.486       .  S
C448        C452   1.536       .  S
C448        C450   1.527       .  S
C448        H454   1.110       .  S
C449        H455   1.087       .  S
C449        C450   1.359       .  D
C450        C837   1.427       .  S
C451        H456   1.087       .  S
C451        C452   1.365       .  D
C452        C846   1.437       .  S
In457       O459   2.221       .  S
In457       O460   2.247       .  S
In457       O468   2.237       .  S
In457       O462   2.252       .  S
In457       O464   2.258       .  S
In457       O465   2.244       .  S
In457       O466   2.235       .  S
In457       O469   2.248       .  S
C458        O464   1.260       .  A
C458        O466   1.259       .  A
C458        C836   1.435       .  S
O459        C467   1.258       .  A
O460        C467   1.262       .  A
C461        O468   1.258       .  A
C461        O462   1.261       .  A
C461        C864   1.434       .  S
C463        O465   1.258       .  A
C463        O469   1.260       .  A
C463        C834   1.435       .  S
C467        C832   1.427       .  S
C470        C471   1.523       .  S
C470        C476   1.522       .  S
C470        C474   1.524       .  S
C470        C833   1.468       .  S
C471        H478   1.087       .  S
C472        C473   1.553       .  S
C472        C825   1.481       .  S
C473        C477   1.554       .  S
C473        H479   1.108       .  S
C474        H480   1.082       .  S
C474        C475   1.378       .  D
C475        C719   1.514       .  S
C476        H481   1.087       .  S
C477        C823   1.451       .  S
In482       O484   2.235       .  S
In482       O485   2.260       .  S
In482       O493   2.245       .  S
In482       O487   2.259       .  S
In482       O489   2.276       .  S
In482       O490   2.256       .  S
In482       O491   2.256       .  S
In482       O494   2.262       .  S
C483        O489   1.260       .  A
C483        O491   1.259       .  A
C483        C824   1.447       .  S
O484        C492   1.258       .  A
O485        C492   1.261       .  A
C486        O493   1.258       .  A
C486        O487   1.262       .  A
C486        C850   1.439       .  S
C488        O490   1.259       .  A
C488        O494   1.260       .  A
C488        C821   1.443       .  S
C495        C496   1.532       .  S
C495        C501   1.527       .  S
C495        C499   1.530       .  S
C495        C822   1.477       .  S
C496        H503   1.085       .  S
C496        C497   1.370       .  D
C497        C498   1.539       .  S
C497        C813   1.484       .  S
C498        C502   1.537       .  S
C498        C500   1.552       .  S
C498        H504   1.107       .  S
C499        H505   1.083       .  S
C499        C500   1.377       .  D
C500        C694   1.507       .  S
C501        H506   1.087       .  S
C501        C502   1.362       .  D
C502        C835   1.442       .  S
C507        C508   1.528       .  S
C507        C513   1.534       .  S
C507        C511   1.539       .  S
C507        C809   1.470       .  S
C508        H515   1.087       .  S
C508        C509   1.357       .  D
C509        C510   1.527       .  S
C509        C807   1.424       .  S
C510        C514   1.530       .  S
C510        C512   1.535       .  S
C510        H516   1.112       .  S
C511        H517   1.084       .  S
C511        C512   1.378       .  D
C512        C826   1.490       .  S
C513        H518   1.086       .  S
C513        C514   1.365       .  D
C514        C829   1.433       .  S
C519        C520   1.531       .  S
C519        C525   1.532       .  S
C519        C523   1.531       .  S
C519        C806   1.465   1_455  S
C520        H527   1.087   1_455  S
C520        C521   1.360       .  D
C521        C522   1.529       .  S
C521        C801   1.431       .  S
C522        C526   1.539       .  S
C522        C524   1.545       .  S
C522        H528   1.110       .  S
C523        H529   1.087       .  S
C523        C524   1.366       .  D
C524        C814   1.480       .  S
C525        H530   1.087       .  S
C525        C526   1.365       .  D
C526        C820   1.444       .  S
In531       O533   2.248       .  S
In531       O534   2.250       .  S
In531       O542   2.238       .  S
In531       O536   2.245       .  S
In531       O538   2.252       .  S
In531       O539   2.257       .  S
In531       O540   2.241       .  S
In531       O543   2.228       .  S
C532        O538   1.260       .  A
C532        O540   1.260       .  A
C532        C799   1.437       .  S
O533        C541   1.259       .  A
O534        C541   1.260       .  A
C535        O542   1.259       .  A
C535        O536   1.261       .  A
C535        C803   1.432       .  S
C537        O539   1.262       .  A
C537        O543   1.257       .  A
C537        C843   1.433       .  S
C541        C797   1.438       .  S
C544        C545   1.521       .  S
C544        C550   1.526       .  S
C544        C548   1.524       .  S
C544        C798   1.472       .  S
C545        H552   1.082       .  S
C545        C546   1.375       .  D
C546        C547   1.562       .  S
C546        C623   1.515       .  S
C547        C551   1.548       .  S
C547        C549   1.554       .  S
C547        H553   1.109       .  S
C548        H554   1.083       .  S
C548        C549   1.371       .  D
C549        C840   1.496       .  S
C550        H555   1.087       .  S
C550        C551   1.364       .  D
C551        C795   1.449       .  S
In556       O558   2.258       .  S
In556       O559   2.254       .  S
In556       O567   2.240       .  S
In556       O561   2.259       .  S
In556       O563   2.271       .  S
In556       O564   2.258       .  S
In556       O565   2.246       .  S
In556       O568   2.238       .  S
C557        O563   1.262       .  A
C557        O565   1.259       .  A
C557        C796   1.444       .  S
O558        C566   1.260       .  A
O559        C566   1.260       .  A
C560        O567   1.258       .  A
C560        O561   1.263       .  A
C560        C812   1.438       .  S
C562        O564   1.262       .  A
C562        O568   1.259       .  A
C562        C857   1.437       .  S
C566        C793   1.442       .  S
C569        C570   1.526       .  S
C569        C575   1.527       .  S
C569        C573   1.532       .  S
C569        C794   1.477       .  S
C570        H577   1.082       .  S
C570        C571   1.374       .  D
C571        C572   1.557       .  S
C571        C648   1.511       .  S
C572        C576   1.542       .  S
C572        C574   1.543       .  S
C572        H578   1.108       .  S
C573        H579   1.085       .  S
C573        C574   1.371       .  D
C574        C854   1.489       .  S
C575        H580   1.087       .  S
C575        C576   1.364       .  D
C576        C800   1.444       .  S
C581        C582   1.531       .  S
C581        C587   1.530       .  S
C581        C585   1.531       .  S
C581        C792   1.465   1_455  S
C582        H589   1.087       .  S
C582        C583   1.368       .  D
C583        C584   1.547       .  S
C583        C782   1.482       .  S
C584        C588   1.540       .  S
C584        C586   1.529       .  S
C584        H590   1.110       .  S
C585        H591   1.087   1_455  S
C585        C586   1.360       .  D
C586        C802   1.431       .  S
C587        H592   1.087       .  S
C587        C588   1.364       .  D
C588        C785   1.443       .  S
C593        C594   1.543       .  S
C593        C599   1.534       .  S
C593        C597   1.529       .  S
C593        C777   1.476       .  S
C594        H601   1.084       .  S
C594        C595   1.380       .  D
C595        C596   1.537       .  S
C595        C769   1.496       .  S
C596        C600   1.531       .  S
C596        C598   1.526       .  S
C596        H602   1.112       .  S
C597        H603   1.087       .  S
C597        C598   1.358       .  D
C598        C808   1.424       .  S
C599        H604   1.087       .  S
C599        C600   1.364       .  D
C600        C773   1.436       .  S
In605       O607   2.225       .  S
In605       O608   2.254   1_565  S
In605       O616   2.238   1_565  S
In605       O610   2.247       .  S
In605       O612   2.256       .  S
In605       O613   2.247   1_565  S
In605       O614   2.238       .  S
In605       O617   2.250       .  S
C606        O612   1.260       .  A
C606        O614   1.259       .  A
C606        C767   1.436       .  S
O607        C615   1.257   1_565  A
O608        C615   1.262       .  A
C609        O616   1.258   1_565  A
C609        O610   1.261       .  A
C609        C789   1.432       .  S
C611        O613   1.259       .  A
C611        O617   1.260   1_545  A
C611        C765   1.436       .  S
C615        C761   1.431       .  S
C618        C619   1.523       .  S
C618        C624   1.521       .  S
C618        C622   1.524       .  S
C618        C766   1.470       .  S
C619        H626   1.087       .  S
C619        C620   1.360       .  D
C620        C621   1.556       .  S
C620        C757   1.483       .  S
C621        C625   1.555       .  S
C621        C623   1.562       .  S
C621        H627   1.108       .  S
C622        H628   1.082       .  S
C622        C623   1.379       .  D
C624        H629   1.087       .  S
C624        C625   1.362       .  D
C625        C756   1.451       .  S
In630       O632   2.244   1_565  S
In630       O633   2.263       .  S
In630       O641   2.249       .  S
In630       O635   2.271   1_565  S
In630       O637   2.275   1_565  S
In630       O638   2.259       .  S
In630       O639   2.259   1_565  S
In630       O642   2.260       .  S
C631        O637   1.260       .  A
C631        O639   1.259       .  A
C631        C755   1.448       .  S
O632        C640   1.259   1_545  A
O633        C640   1.262       .  A
C634        O641   1.258   1_545  A
C634        O635   1.262       .  A
C634        C780   1.444       .  S
C636        O638   1.259       .  A
C636        O642   1.260       .  A
C636        C753   1.443       .  S
C640        C749   1.440       .  S
C643        C644   1.533       .  S
C643        C649   1.526       .  S
C643        C647   1.527       .  S
C643        C754   1.478       .  S
C644        H651   1.084       .  S
C644        C645   1.372       .  D
C645        C646   1.543       .  S
C645        C745   1.489       .  S
C646        C650   1.541       .  S
C646        C648   1.554       .  S
C646        H652   1.108       .  S
C647        H653   1.082       .  S
C647        C648   1.376       .  D
C649        H654   1.087       .  S
C649        C650   1.363       .  D
C650        C768   1.442       .  S
C655        C656   1.530       .  S
C655        C661   1.531       .  S
C655        C659   1.531       .  S
C655        C741   1.466       .  S
C656        H663   1.087       .  S
C656        C657   1.359       .  D
C657        C658   1.531       .  S
C657        C852   1.432       .  S
C658        C662   1.543       .  S
C658        C660   1.547       .  S
C658        H664   1.110       .  S
C659        H665   1.087       .  S
C659        C660   1.367       .  D
C660        C746   1.484       .  S
C661        H666   1.087       .  S
C661        C662   1.365       .  D
C662        C752   1.446       .  S
C667        C668   1.529       .  S
C667        C673   1.535       .  S
C667        C671   1.544       .  S
C667        C737   1.476       .  S
C668        H675   1.087       .  S
C668        C669   1.358       .  D
C669        C670   1.526       .  S
C669        C838   1.426       .  S
C670        C674   1.530       .  S
C670        C672   1.533       .  S
C670        H676   1.112       .  S
C671        H677   1.084       .  S
C671        C672   1.380       .  D
C672        C758   1.490       .  S
C673        H678   1.086       .  S
C673        C674   1.364       .  D
C674        C764   1.437       .  S
In679       O681   2.255       .  S
In679       O682   2.259   1_545  S
In679       O690   2.246   1_545  S
In679       O684   2.264       .  S
In679       O686   2.275       .  S
In679       O687   2.267   1_545  S
In679       O688   2.251       .  S
In679       O691   2.244       .  S
C680        O686   1.262       .  A
C680        O688   1.259       .  A
C680        C736   1.447       .  S
O681        C689   1.260   1_545  A
O682        C689   1.261       .  A
C683        O690   1.259   1_545  A
C683        O684   1.264       .  A
C683        C740   1.444       .  S
C685        O687   1.263       .  A
C685        O691   1.259   1_565  A
C689        C734   1.443       .  S
C692        C693   1.527       .  S
C692        C698   1.529       .  S
C692        C696   1.533       .  S
C692        C733   1.477       .  S
C693        H700   1.083       .  S
C693        C694   1.374       .  D
C694        C695   1.554       .  S
C695        C699   1.538       .  S
C695        C697   1.540       .  S
C695        H701   1.107       .  S
C696        H702   1.085       .  S
C696        C697   1.371       .  D
C697        C781   1.488       .  S
C698        H703   1.087       .  S
C698        C699   1.364       .  D
C699        C731   1.443       .  S
In704       O706   2.249       .  S
In704       O707   2.248   1_565  S
In704       O715   2.231   1_565  S
In704       O709   2.250       .  S
In704       O711   2.256       .  S
In704       O712   2.250   1_565  S
In704       O713   2.234       .  S
In704       O716   2.226       .  S
C705        O711   1.261       .  A
C705        O713   1.259       .  A
C705        C732   1.436       .  S
O706        C714   1.260   1_565  A
O707        C714   1.260       .  A
C708        O715   1.258   1_565  A
C708        O709   1.262       .  A
C708        C744   1.432       .  S
C710        O712   1.263       .  A
C710        O716   1.258   1_545  A
C710        C776   1.430       .  S
C714        C729   1.437       .  S
C717        C718   1.522       .  S
C717        C723   1.525       .  S
C717        C721   1.525       .  S
C717        C730   1.472       .  S
C718        H725   1.082       .  S
C718        C719   1.375       .  D
C720        C724   1.552       .  S
C720        C722   1.559       .  S
C720        H726   1.108       .  S
C721        H727   1.083       .  S
C722        C770   1.488       .  S
C723        H728   1.087       .  S
C724        C735   1.452       .  S
C729        C730   1.207       .  T
C731        C732   1.206       .  T
C733        C734   1.210       .  T
C735        C736   1.213       .  T
C737        C738   1.211       .  T
C738        C739   1.420   1_655  S
C739        C740   1.211       .  T
C741        C742   1.205       .  T
C742        C743   1.410       .  S
C743        C744   1.204       .  T
C745        H747   1.084       .  S
C745        C746   1.347       .  D
C746        H748   1.084       .  S
C749        C750   1.209       .  T
C750        C751   1.417       .  S
C751        C752   1.209       .  T
C755        C756   1.213       .  T
C757        H759   1.085       .  S
C757        C758   1.338       .  D
C758        H760   1.085       .  S
C761        C762   1.203       .  T
C762        C763   1.408       .  S
C765        C766   1.207       .  T
C767        C768   1.206       .  T
C769        H771   1.086       .  S
C769        C770   1.342       .  D
C770        H772   1.084       .  S
C773        C774   1.202       .  T
C774        C775   1.407       .  S
C775        C776   1.203       .  T
C777        C778   1.211       .  T
C778        C779   1.420       .  S
C779        C780   1.211       .  T
C781        H783   1.085       .  S
C781        C782   1.346       .  D
C782        H784   1.084       .  S
C785        C786   1.207       .  T
C786        C787   1.414       .  S
C787        C788   1.207       .  T
C789        C790   1.204       .  T
C790        C791   1.409       .  S
C791        C792   1.204       .  T
C795        C796   1.211       .  T
C797        C798   1.207       .  T
C799        C800   1.207       .  T
C801        C802   1.199       .  T
C803        C804   1.204       .  T
C804        C805   1.409       .  S
C805        C806   1.204       .  T
C807        C808   1.195       .  T
C809        C810   1.207       .  T
C810        C811   1.414       .  S
C811        C812   1.207       .  T
C813        H815   1.085       .  S
C813        C814   1.345       .  D
C814        H816   1.085       .  S
C817        C818   1.207       .  T
C818        C819   1.415       .  S
C819        C820   1.207       .  T
C821        C822   1.211       .  T
C823        C824   1.212       .  T
C825        H827   1.084       .  S
C825        C826   1.340       .  D
C826        H828   1.086       .  S
C829        C830   1.201       .  T
C830        C831   1.404       .  S
C831        C832   1.201       .  T
C833        C834   1.206       .  T
C835        C836   1.206       .  T
C837        C838   1.196       .  T
C839        H841   1.081       .  S
C839        C840   1.354       .  D
C840        H842   1.084       .  S
C843        C844   1.204       .  T
C844        C845   1.409       .  S
C847        C848   1.208       .  T
C848        C849   1.416   1_655  S
C849        C850   1.208       .  T
C851        C852   1.200       .  T
C853        H855   1.084       .  S
C853        C854   1.348       .  D
C854        H856   1.085       .  S
C857        C858   1.207       .  T
C858        C859   1.414       .  S
C859        C860   1.207       .  T
C861        C862   1.205       .  T
C862        C863   1.410       .  S
C863        C864   1.205       .  T
