geometry optimzed in LAMMPS
_audit_creation_date              2020-11-30 
_audit_creation_method            'lammps2cif' 
_symmetry_space_group_name_H-M    'P1' 
_symmetry_Int_Tables_number       1 
_symmetry_cell_setting            triclinic 
loop_ 
_symmetry_equiv_pos_as_xyz 
  x,y,z 
_cell_length_a                    39.84728592 
_cell_length_b                    36.78693636171157 
_cell_length_c                    26.700315998622692 
_cell_angle_alpha                 90.00273642709995 
_cell_angle_beta                  88.63844518417052 
_cell_angle_gamma                 90.15708192472685 
loop_ 
_atom_site_label 
_atom_site_type_symbol 
_atom_site_fract_x 
_atom_site_fract_y 
_atom_site_fract_z 
_atom_site_charge 
C1          C  0.08260064  0.26058232  0.21433027     0.05400
C2          C  0.07021377  0.27070761  0.26175962    -0.10700
C3          C  0.08562279  0.25867466  0.30538701     0.02900
C4          C  0.11329468  0.23540792  0.30119681    -0.09300
C5          C  0.12651727  0.22542076  0.25385797     0.05400
C6          C  0.11074711  0.23765694  0.21049680    -0.08700
H7          H  0.04816363  0.28781016  0.26436356     0.11000
H8          H  0.12479447  0.22559643  0.33494652     0.08500
H9          H  0.12139549  0.23060508  0.17411964     0.08400
In10       In  0.03027743  0.65778977  0.48652980     1.36900
C11         C  0.09204220  0.67678874  0.98225003     0.79900
O12         O  0.03954034  0.65720614  0.40290533    -0.58600
O13         O  0.99489454  0.68167186  0.43114556    -0.49500
C14         C  0.02992451  0.58574615  0.49174164     0.72500
O15         O  0.06155822  0.58230125  0.98906669    -0.44300
C16         C  0.01365606  0.65979220  0.08318607     0.77200
O17         O  0.08597574  0.66855645  0.47973791    -0.56200
O18         O  0.99509049  0.65746098  0.04563887    -0.46300
O19         O  0.06420074  0.68635234  0.96542561    -0.52600
C20         C  0.01264095  0.67329789  0.39316033     0.87400
O21         O  0.00603172  0.60345413  0.47382168    -0.54500
O22         O  0.04359446  0.65050281  0.07489539    -0.57800
In23       In  0.02229100  0.33217111  0.50380573     1.36900
C24         C  0.46282833  0.28897835  0.00197403     0.79900
O25         O  0.02951370  0.34188416  0.42142533    -0.58600
O26         O  0.05006416  0.29393627  0.45274582    -0.49500
C27         C  0.02373395  0.40439191  0.50530208     0.72500
O28         O  0.49796272  0.37981207  0.98838554    -0.44300
C29         C  0.04941698  0.28035731  0.08325714     0.77200
O30         O  0.45638711  0.32879822  0.50460848    -0.56200
O31         O  0.04753892  0.26677598  0.04016114    -0.46300
O32         O  0.48718216  0.27584107  0.97717065    -0.52600
C33         C  0.04559109  0.31283600  0.41408836     0.87400
O34         O  0.04785140  0.38533557  0.51950826    -0.54500
O35         O  0.03467065  0.31040603  0.08869059    -0.57800
C36         C  0.45811023  0.70309302  0.20000747     0.05400
C37         C  0.47415179  0.69104999  0.24334166    -0.10700
C38         C  0.46220780  0.70109058  0.29105875     0.02900
C39         C  0.43305743  0.72228348  0.29573015    -0.09300
C40         C  0.41634474  0.73400041  0.25306460     0.05400
C41         C  0.42898747  0.72428945  0.20527284    -0.08700
H42         H  0.99760663  0.67760638  0.23717779     0.11000
H43         H  0.42287325  0.72904283  0.33251108     0.08500
H44         H  0.41583257  0.73248714  0.17212197     0.08400
C45         C  0.21678885  0.75677386  0.05414990     0.05400
C46         C  0.19200826  0.72979068  0.05181210    -0.10700
C47         C  0.17705174  0.72141205  0.00617165     0.02900
C48         C  0.19150975  0.75304919  0.44964529    -0.09300
C49         C  0.21882422  0.77680648  0.45530953     0.05400
C50         C  0.22806781  0.77376100  0.00976441    -0.08700
H51         H  0.18321681  0.71649911  0.08595107     0.11000
H52         H  0.18498325  0.74332648  0.41283641     0.08500
H53         H  0.24825677  0.79347268  0.01058461     0.08400
In54       In  0.28312488  0.83141642  0.24548422     1.36900
C55         C  0.34236539  0.79890383  0.23474268     0.79300
O56         O  0.27704461  0.81753858  0.32702708    -0.58600
O57         O  0.23437560  0.81356491  0.28118515    -0.49500
C58         C  0.28504153  0.90281837  0.25967423     0.72500
O59         O  0.31000935  0.88285760  0.26740448    -0.44300
C60         C  0.25675406  0.81111049  0.15987408     0.77200
O61         O  0.33445094  0.82618039  0.20911811    -0.56200
O62         O  0.25981681  0.78950577  0.19608263    -0.46300
O63         O  0.32023772  0.78871770  0.26622382    -0.52600
C64         C  0.24635238  0.80952502  0.32400727     0.87400
O65         O  0.25922658  0.88640862  0.24560514    -0.54500
O66         O  0.26734758  0.84284901  0.16742222    -0.57800
In67       In  0.27416175  0.15586972  0.25879406     1.36900
C68         C  0.21483343  0.18754146  0.27351294     0.79900
O69         O  0.29312329  0.15519176  0.33686134    -0.58600
O70         O  0.30905084  0.19829272  0.28872683    -0.49500
C71         C  0.27756879  0.08382389  0.26562863     0.72500
O72         O  0.25214764  0.10135501  0.28038381    -0.44300
C73         C  0.29336621  0.17364830  0.16590452     0.77200
O74         O  0.21890120  0.16088055  0.24429504    -0.56200
O75         O  0.31394877  0.16798671  0.20009929    -0.46300
O76         O  0.24080978  0.19742366  0.29572233    -0.52600
C77         C  0.30995063  0.18415953  0.33170961     0.87400
O78         O  0.30111101  0.10286439  0.24763105    -0.54500
O79         O  0.26304771  0.17041792  0.17924981    -0.57800
C80         C  0.34689492  0.19589803  0.04819417     0.05400
C81         C  0.32767627  0.18648016  0.00664699    -0.10700
C82         C  0.33817355  0.20596537  0.46498633     0.02900
C83         C  0.36344635  0.23279929  0.46331839    -0.09300
C84         C  0.38963303  0.22160493  0.99162964     0.05400
C85         C  0.37788628  0.21335845  0.04031886    -0.08700
H86         H  0.30402225  0.17226170  0.01187637     0.11000
H87         H  0.37540381  0.24041762  0.42806587     0.08500
H88         H  0.39295065  0.22044468  0.07215859     0.08400
C89         C  0.32551560  0.18755502  0.41970240    -0.14100
C90         C  0.32793187  0.20126609  0.37314971    -0.29300
H91         H  0.31105445  0.16272924  0.42563282     0.14900
H92         H  0.34088778  0.22673801  0.36572032     0.15500
C93         C  0.33588839  0.18680530  0.10014061    -0.14100
C94         C  0.30347515  0.18306632  0.11424087    -0.29300
H95         H  0.35512607  0.18413878  0.12808071     0.14900
H96         H  0.28366048  0.18743430  0.08776841     0.15500
C97         C  0.28576896  0.94152403  0.26559597    -0.16200
C98         C  0.28462487  0.97417321  0.26836975     0.07900
C99         C  0.28203078  0.01238284  0.26945218     0.09700
C100        C  0.27965668  0.04500555  0.26864632    -0.17100
C101        C  0.22586483  0.79587911  0.36653328    -0.14100
C102        C  0.23892658  0.79041177  0.41179323    -0.29300
H103        H  0.19951547  0.79039059  0.36024728     0.14900
H104        H  0.26496337  0.79777622  0.41785201     0.15500
C105        C  0.24221378  0.80069188  0.11209252    -0.14100
C106        C  0.23059037  0.76703668  0.10320588    -0.29300
H107        H  0.24081795  0.82173852  0.08376204     0.14900
H108        H  0.23021993  0.74692076  0.13304040     0.15500
C109        C  0.38457657  0.75440312  0.25973799    -0.14100
C110        C  0.37470658  0.78014563  0.22764537    -0.29300
H111        H  0.36929827  0.74879476  0.29313215     0.14900
H112        H  0.39066560  0.78786457  0.19586626     0.15500
C113        C  0.42203601  0.24064761  0.98310019    -0.14100
C114        C  0.43079229  0.26962656  0.01053458    -0.29300
H115        H  0.43804278  0.23203609  0.95180156     0.14900
H116        H  0.43242956  0.24888655  0.45803006     0.15500
C117        C  0.14881739  0.69519862  0.00607878    -0.14100
C118        C  0.12195520  0.70010043  0.97746022    -0.29300
H119        H  0.14854530  0.67347972  0.03371048     0.14900
H120        H  0.11034047  0.74607305  0.53284725     0.15500
C121        C  0.00257412  0.68078808  0.34133873    -0.14100
C122        C  0.47971743  0.68724978  0.33539579    -0.29300
H123        H  0.01696969  0.66795751  0.31134592     0.14900
H124        H  0.49222217  0.66109586  0.33204078     0.15500
C125        C  0.47032080  0.69271111  0.14891354    -0.14100
C126        C  0.00204506  0.67257403  0.13302516    -0.29300
H127        H  0.45268155  0.69395637  0.11855049     0.14900
H128        H  0.02084579  0.67558947  0.16141072     0.15500
C129        C  0.02508029  0.44333355  0.50466275    -0.16200
C130        C  0.02664837  0.47600807  0.50260293     0.07900
C131        C  0.02839449  0.51422098  0.49890105     0.09700
C132        C  0.02942647  0.54685974  0.49542615    -0.17100
C133        C  0.07340786  0.27014553  0.35577505    -0.14100
C134        C  0.05763297  0.30193441  0.36397693    -0.29300
H135        H  0.07871701  0.25257801  0.38733788     0.14900
H136        H  0.05352826  0.32080484  0.33352452     0.15500
C137        C  0.06725657  0.26244773  0.12410960    -0.14100
C138        C  0.06647273  0.27683635  0.17029230    -0.29300
H139        H  0.08006954  0.23699753  0.11638405     0.14900
H140        H  0.05203654  0.30150931  0.17685289     0.15500
C141        C  0.18270271  0.20649264  0.28108240    -0.14100
C142        C  0.15749078  0.20334243  0.24880055    -0.29300
H143        H  0.18086069  0.22560434  0.31199799     0.14900
H144        H  0.16085635  0.18650735  0.21561673     0.15500
C145        C  0.08563513  0.27820888  0.71013538     0.05400
C146        C  0.07180176  0.28363268  0.75828691    -0.10700
C147        C  0.08912959  0.27277526  0.80101283     0.02900
C148        C  0.11999542  0.25504497  0.79481610    -0.09300
C149        C  0.13374799  0.24815597  0.74686715     0.05400
C150        C  0.11677022  0.26040634  0.70466798    -0.08700
H151        H  0.04744477  0.29633451  0.76175238     0.11000
H152        H  0.13355399  0.24707572  0.82773382     0.08500
H153        H  0.12739868  0.25473030  0.66786071     0.08400
In154      In  0.03662851  0.63699674  0.99383792     1.36900
C155        C  0.08411925  0.69979566  0.49893359     0.79900
O156        O  0.02989469  0.62388174  0.91269899    -0.58600
O157        O  0.00032873  0.66636412  0.94464808    -0.49500
C158        C  0.03532123  0.56514095  0.00186728     0.72500
O159        O  0.05408906  0.60465779  0.50669759    -0.44300
C160        C  0.99231163  0.67309100  0.56705915     0.77200
O161        O  0.09183446  0.64638177  0.00408773    -0.56200
O162        O  0.98558220  0.68431556  0.52379859    -0.46300
O163        O  0.05486608  0.70967361  0.51093546    -0.52600
C164        C  0.00825834  0.64822181  0.90594625     0.87400
O165        O  0.00979975  0.58451107  0.01025204    -0.54500
O166        O  0.01801449  0.65323639  0.56896003    -0.57800
In167      In  0.01635995  0.31273709  0.01041620     1.36900
C168        C  0.45828827  0.29680169  0.48772770     0.79900
O169        O  0.01178512  0.32214451  0.92814328    -0.58600
O170        O  0.05339156  0.29168218  0.95360411    -0.49500
C171        C  0.02339050  0.38423541  0.01542863     0.72500
O172        O  0.48895002  0.39374407  0.50408480    -0.44300
C173        C  0.05875101  0.30954356  0.57959747     0.77200
O174        O  0.46814464  0.32009834  0.01971895    -0.56200
O175        O  0.07115773  0.31557808  0.53662055    -0.46300
O176        O  0.48755273  0.28625899  0.47695823    -0.52600
C177        C  0.03810808  0.30477280  0.91690301     0.87400
O178        O  0.04814436  0.36300834  0.01531023    -0.54500
O179        O  0.02759132  0.31509403  0.58391043    -0.57800
C180        C  0.46437000  0.71167067  0.71662253     0.05400
C181        C  0.47716408  0.70375734  0.76372993    -0.10700
C182        C  0.45867908  0.71187031  0.80791306     0.02900
C183        C  0.42789558  0.73017752  0.80435979    -0.09300
C184        C  0.41508107  0.73871376  0.75716256     0.05400
C185        C  0.43329437  0.72921375  0.71371398    -0.08700
H186        H  0.99948144  0.66331202  0.75220904     0.11000
H187        H  0.41343718  0.73651698  0.83812351     0.08500
H188        H  0.42333665  0.73638795  0.67767875     0.08400
C189        C  0.20914729  0.77612807  0.54606842     0.05400
C190        C  0.18098639  0.75369590  0.53944777    -0.10700
C191        C  0.17216313  0.74196405  0.49137487     0.02900
C192        C  0.18843894  0.73888247  0.96200990    -0.09300
C193        C  0.21427455  0.76490245  0.96367318     0.05400
C194        C  0.22770402  0.78781266  0.50345806    -0.08700
H195        H  0.16639919  0.74459444  0.57187261     0.11000
H196        H  0.17701774  0.73239734  0.92672636     0.08500
H197        H  0.24856913  0.80640734  0.50693287     0.08400
In198      In  0.27530088  0.82376529  0.75476742     1.36900
C199        C  0.33594409  0.79706652  0.77148642     0.79300
O200        O  0.25689984  0.82077340  0.83446941    -0.58600
O201        O  0.24575050  0.77657127  0.78663267    -0.49500
C202        C  0.26687608  0.89508011  0.75552262     0.72500
O203        O  0.29510770  0.88061447  0.74785835    -0.44300
C204        C  0.25701016  0.80967146  0.66168409     0.77200
O205        O  0.32453223  0.82419853  0.79497062    -0.56200
O206        O  0.23709801  0.80599147  0.69884491    -0.46300
O207        O  0.31659161  0.78423484  0.73927688    -0.52600
C208        C  0.24356982  0.78988240  0.83002496     0.87400
O209        O  0.24283079  0.87328247  0.76255125    -0.54500
O210        O  0.28578511  0.82125465  0.67217105    -0.57800
In211      In  0.26551490  0.14755051  0.75577513     1.36900
C212        C  0.20810019  0.18368308  0.76639951     0.79900
O213        O  0.27459216  0.16695197  0.83407112    -0.58600
O214        O  0.31683781  0.15786597  0.78596607    -0.49500
C215        C  0.26045329  0.07579801  0.75878240     0.72500
O216        O  0.23707048  0.09559690  0.74373135    -0.44300
C217        C  0.28917597  0.16330808  0.66524594     0.77200
O218        O  0.23021599  0.19214916  0.73394328    -0.56200
O219        O  0.29406209  0.18341043  0.70266903    -0.46300
O220        O  0.21557109  0.15718639  0.79382418    -0.52600
C221        C  0.30612101  0.16724188  0.82873348     0.87400
O222        O  0.28609597  0.09248597  0.77293362    -0.54500
O223        O  0.27197683  0.13517139  0.67411684    -0.57800
C224        C  0.33392673  0.21264017  0.55590588     0.05400
C225        C  0.32384943  0.19592082  0.51140361    -0.10700
C226        C  0.33926200  0.19404084  0.95777259     0.02900
C227        C  0.37050722  0.21142577  0.95048526    -0.09300
C228        C  0.37342235  0.24999307  0.50763403     0.05400
C229        C  0.35815086  0.24024063  0.55339903    -0.08700
H230        H  0.30410314  0.17570275  0.51210822     0.11000
H231        H  0.37953079  0.21837826  0.91313965     0.08500
H232        H  0.36602899  0.25341190  0.58749957     0.08400
C233        C  0.31733662  0.18449348  0.91559730    -0.14100
C234        C  0.32893274  0.17743730  0.86899331    -0.29300
H235        H  0.29058873  0.18174219  0.92380984     0.14900
H236        H  0.35566175  0.17795937  0.86026174     0.15500
C237        C  0.31952927  0.20262197  0.60569470    -0.14100
C238        C  0.30237832  0.17176928  0.61491277    -0.29300
H239        H  0.32405934  0.22111513  0.63658735     0.14900
H240        H  0.29818854  0.15184429  0.58585183     0.15500
C241        C  0.26255450  0.93364072  0.75645004    -0.16200
C242        C  0.25998248  0.96618412  0.75738930     0.07900
C243        C  0.25839196  0.00435547  0.75839872     0.09700
C244        C  0.25844980  0.03702077  0.75893583    -0.17100
C245        C  0.22731463  0.77040392  0.87226068    -0.14100
C246        C  0.22721227  0.78442175  0.91867717    -0.29300
H247        H  0.21699921  0.74360321  0.86537977     0.14900
H248        H  0.23926168  0.81056687  0.92460739     0.15500
C249        C  0.24824332  0.80063208  0.60986569    -0.14100
C250        C  0.21803430  0.78715150  0.59783970    -0.29300
H251        H  0.26803135  0.80395201  0.58170420     0.14900
H252        H  0.19936946  0.78273676  0.62760453     0.15500
C253        C  0.38170187  0.75524959  0.75110422    -0.14100
C254        C  0.36911790  0.78132872  0.78113783    -0.29300
H255        H  0.36772972  0.74699561  0.71849199     0.14900
H256        H  0.38346520  0.79164737  0.81217873     0.15500
C257        C  0.40045668  0.27757812  0.50773912    -0.14100
C258        C  0.42912038  0.27286924  0.48135163    -0.29300
H259        H  0.39854251  0.29970994  0.53463072     0.14900
H260        H  0.41359071  0.28006986  0.03922472     0.15500
C261        C  0.14308898  0.71761361  0.48389358    -0.14100
C262        C  0.11350272  0.72305611  0.50767009    -0.29300
H263        H  0.14531077  0.69646366  0.45556611     0.14900
H264        H  0.12066184  0.72352227  0.95281161     0.15500
C265        C  0.99425687  0.65491834  0.85611918    -0.14100
C266        C  0.47132982  0.70180941  0.85796475    -0.29300
H267        H  0.99998018  0.63518872  0.82699122     0.14900
H268        H  0.46310633  0.71784143  0.89015485     0.15500
C269        C  0.48420229  0.70134977  0.67120543    -0.14100
C270        C  0.97211701  0.68370380  0.61165927    -0.29300
H271        H  0.51109325  0.69769575  0.67490314     0.14900
H272        H  0.95225957  0.70310644  0.60557701     0.15500
C273        C  0.02718620  0.42299102  0.01597131    -0.16200
C274        C  0.03003512  0.45557890  0.01426171     0.07900
C275        C  0.03278831  0.49372411  0.01047703     0.09700
C276        C  0.03442741  0.52631194  0.00654908    -0.17100
C277        C  0.07595749  0.27876386  0.85283161    -0.14100
C278        C  0.04972956  0.30020510  0.86474832    -0.29300
H279        H  0.08889745  0.26516576  0.88293996     0.14900
H280        H  0.03625218  0.31493264  0.83649469     0.15500
C281        C  0.07941597  0.29701830  0.62107388    -0.14100
C282        C  0.06597276  0.29047451  0.66675855    -0.29300
H283        H  0.10611117  0.29383124  0.61366025     0.14900
H284        H  0.03933529  0.29550230  0.67319921     0.15500
C285        C  0.17600491  0.20296872  0.77253618    -0.14100
C286        C  0.16607487  0.22861196  0.74020183    -0.29300
H287        H  0.15983451  0.19501475  0.80395437     0.14900
H288        H  0.18144667  0.23446116  0.70698657     0.15500
C289        C  0.58207481  0.28222383  0.20406344     0.05400
C290        C  0.57189469  0.29706672  0.25064450    -0.10700
C291        C  0.58666361  0.28568469  0.29548957     0.02900
C292        C  0.61226928  0.25964412  0.29289833    -0.09300
C293        C  0.62301938  0.24483820  0.24686225     0.05400
C294        C  0.60762747  0.25583255  0.20276057    -0.08700
H295        H  0.55209424  0.31706488  0.25137201     0.11000
H296        H  0.62342993  0.25025824  0.32715027     0.08500
H297        H  0.61654694  0.24431067  0.16770058     0.08400
In298      In  0.52613604  0.66291870  0.50284935     1.36900
C299        C  0.59303758  0.68949477  0.98843962     0.79900
O300        O  0.50962986  0.65894367  0.42346688    -0.58600
O301        O  0.50288246  0.70923074  0.46128068    -0.49500
C302        C  0.52565116  0.59095960  0.51440793     0.72500
O303        O  0.56140222  0.59599709  0.98707052    -0.44300
C304        C  0.51397738  0.67161945  0.08839722     0.77200
O305        O  0.56600775  0.70204341  0.52468829    -0.56200
O306        O  0.49541711  0.67002005  0.05084051    -0.46300
O307        O  0.56513860  0.70068451  0.97374035    -0.52600
C308        C  0.49883996  0.69109791  0.42188288     0.87400
O309        O  0.50329041  0.60775274  0.49151921    -0.54500
O310        O  0.54396274  0.66247113  0.07992799    -0.57800
In311      In  0.51233448  0.33831052  0.49892317     1.36900
C312        C  0.95628512  0.28172516  0.02125180     0.79900
O313        O  0.51339654  0.34971681  0.41616898    -0.58600
O314        O  0.55183363  0.31658054  0.44563763    -0.49500
C315        C  0.51651862  0.40978669  0.51047130     0.72500
O316        O  0.99506549  0.36903925  0.01392329    -0.44300
C317        C  0.55262381  0.29660824  0.06815259     0.77200
O318        O  0.97031472  0.32596569  0.53804811    -0.56200
O319        O  0.53352274  0.32376109  0.07099576    -0.46300
O320        O  0.97730259  0.27258990  0.98771031    -0.52600
C321        C  0.53896503  0.33042860  0.40727829     0.87400
O322        O  0.54192536  0.38948724  0.51054593    -0.54500
O323        O  0.55608735  0.28358487  0.02472139    -0.57800
C324        C  0.95718296  0.69635684  0.19151024     0.05400
C325        C  0.97447104  0.69267878  0.23685683    -0.10700
C326        C  0.96100375  0.70740205  0.28188680     0.02900
C327        C  0.93080563  0.72679861  0.28047062    -0.09300
C328        C  0.91320615  0.73000927  0.23595958     0.05400
C329        C  0.92612661  0.71419905  0.19204783    -0.08700
H330        H  0.49575704  0.67335238  0.24052034     0.11000
H331        H  0.92004831  0.73804504  0.31477199     0.08500
H332        H  0.91218791  0.71652111  0.15779525     0.08400
C333        C  0.72165654  0.76401266  0.05507720     0.05400
C334        C  0.69527095  0.73875178  0.05413453    -0.10700
C335        C  0.68018996  0.72931875  0.00935706     0.02900
C336        C  0.68194852  0.75419809  0.47353032    -0.09300
C337        C  0.71277048  0.77249669  0.47013414     0.05400
C338        C  0.73431717  0.77843875  0.00907081    -0.08700
H339        H  0.68528920  0.72741804  0.08893829     0.11000
H340        H  0.66937789  0.74696486  0.43942911     0.08500
H341        H  0.75500081  0.79738621  0.00925946     0.08400
In342      In  0.78185737  0.82793845  0.26099462     1.36900
C343        C  0.84145579  0.79667177  0.26017367     0.79300
O344        O  0.78481976  0.83306230  0.34431908    -0.58600
O345        O  0.74734035  0.79801879  0.31620016    -0.49500
C346        C  0.76733791  0.89744149  0.26067937     0.72500
O347        O  0.79707069  0.88596459  0.25681482    -0.44300
C348        C  0.76291689  0.81167923  0.16809997     0.77200
O349        O  0.83763312  0.83013593  0.26839091    -0.56200
O350        O  0.75018006  0.79633635  0.20661129    -0.46300
O351        O  0.81478136  0.77920360  0.25262540    -0.52600
C352        C  0.76097109  0.81165371  0.35430072     0.87400
O353        O  0.74475394  0.87339596  0.26428220    -0.54500
O354        O  0.78459857  0.83556046  0.17740811    -0.57800
In355      In  0.75675057  0.14868514  0.25812101     1.36900
C356        C  0.70487476  0.19345957  0.26856728     0.79900
O357        O  0.76341442  0.13888062  0.34014979    -0.58600
O358        O  0.79717992  0.17522563  0.30260445    -0.49500
C359        C  0.75362554  0.07708981  0.25832205     0.72500
O360        O  0.72853199  0.09646752  0.26949718    -0.44300
C361        C  0.77988145  0.16398173  0.16593489     0.77200
O362        O  0.70229682  0.16251277  0.24872093    -0.56200
O363        O  0.79812338  0.16594188  0.20385207    -0.46300
O364        O  0.73371954  0.20122822  0.28345608    -0.52600
C365        C  0.78806720  0.16024963  0.34336609     0.87400
O366        O  0.78014598  0.09415191  0.24696908    -0.54500
O367        O  0.75003381  0.15462007  0.17535896    -0.57800
C368        C  0.83681191  0.19053323  0.05244521     0.05400
C369        C  0.82069855  0.17941596  0.00845617    -0.10700
C370        C  0.84350902  0.20345058  0.44431813     0.02900
C371        C  0.87364901  0.22327028  0.44200012    -0.09300
C372        C  0.88073869  0.21917323  0.00079077     0.05400
C373        C  0.86697043  0.21014605  0.04803879    -0.08700
H374        H  0.79784415  0.16351230  0.01073155     0.11000
H375        H  0.88506879  0.22990424  0.40586791     0.08500
H376        H  0.87993063  0.21793281  0.08160688     0.08400
C377        C  0.82770158  0.19341169  0.39622321    -0.14100
C378        C  0.80407779  0.16753703  0.39161240    -0.29300
H379        H  0.83618968  0.20794696  0.36277272     0.14900
H380        H  0.79558260  0.15166085  0.42370231     0.15500
C381        C  0.82374106  0.18163163  0.10375220    -0.14100
C382        C  0.79185096  0.17179558  0.11435379    -0.29300
H383        H  0.84093183  0.18450157  0.13451738     0.14900
H384        H  0.77357387  0.16993890  0.08506594     0.15500
C385        C  0.75997059  0.93536656  0.26087244    -0.16200
C386        C  0.75578818  0.96766925  0.26060022     0.07900
C387        C  0.75303783  0.00570033  0.25978874     0.09700
C388        C  0.75238642  0.03832209  0.25900944    -0.17100
C389        C  0.75029761  0.80417454  0.40681792    -0.14100
C390        C  0.72657584  0.77948138  0.41851763    -0.29300
H391        H  0.76185306  0.82012428  0.43591064     0.14900
H392        H  0.71527287  0.76466397  0.38793598     0.15500
C393        C  0.75365719  0.80282091  0.11594790    -0.14100
C394        C  0.73411945  0.77407775  0.10564530    -0.29300
H395        H  0.76304785  0.82042388  0.08619259     0.14900
H396        H  0.72531770  0.75748619  0.13703239     0.15500
C397        C  0.88026878  0.74815903  0.23545776    -0.14100
C398        C  0.87457232  0.77944076  0.25993057    -0.29300
H399        H  0.86069922  0.73629319  0.21289647     0.14900
H400        H  0.89483157  0.79316445  0.27890080     0.15500
C401        C  0.91297529  0.23892510  0.99504034    -0.14100
C402        C  0.92347666  0.26382055  0.02796673    -0.29300
H403        H  0.92817009  0.23350037  0.96153057     0.14900
H404        H  0.91365041  0.28760065  0.54662626     0.15500
C405        C  0.65067760  0.70495417  0.01089043    -0.14100
C406        C  0.62364010  0.71160947  0.98339453    -0.29300
H407        H  0.64985538  0.68322769  0.03851168     0.14900
H408        H  0.63724450  0.69767564  0.45716284     0.15500
C409        C  0.48203432  0.70622629  0.37811311    -0.14100
C410        C  0.97582954  0.70171671  0.33202533    -0.29300
H411        H  0.47140887  0.73331248  0.38119442     0.14900
H412        H  0.96280794  0.71423382  0.36385672     0.15500
C413        C  0.96985613  0.68138090  0.14280098    -0.14100
C414        C  0.50223123  0.68284915  0.13868882    -0.29300
H415        H  0.95205847  0.67905424  0.11271430     0.14900
H416        H  0.52080775  0.68321791  0.16767465     0.15500
C417        C  0.51891480  0.44847892  0.51664815    -0.16200
C418        C  0.52114655  0.48108065  0.52010651     0.07900
C419        C  0.52361985  0.51938697  0.52134024     0.09700
C420        C  0.52514020  0.55211382  0.51967373    -0.17100
C421        C  0.57553040  0.29848606  0.34626753    -0.14100
C422        C  0.55152812  0.32340757  0.35568298    -0.29300
H423        H  0.58694929  0.28538784  0.37812032     0.14900
H424        H  0.53916821  0.33738129  0.32561944     0.15500
C425        C  0.56956870  0.28114574  0.11187769    -0.14100
C426        C  0.56573331  0.29581592  0.15795613    -0.29300
H427        H  0.58493247  0.25730040  0.10541837     0.14900
H428        H  0.54934534  0.31923667  0.16233335     0.15500
C429        C  0.67681386  0.21904669  0.27386514    -0.14100
C430        C  0.65016684  0.21744408  0.24411487    -0.29300
H431        H  0.67933007  0.24121406  0.30040241     0.14900
H432        H  0.64947733  0.19711476  0.21458553     0.15500
C433        C  0.58943419  0.27234818  0.68960208     0.05400
C434        C  0.57859709  0.28669874  0.73640499    -0.10700
C435        C  0.59438984  0.27636741  0.78102200     0.02900
C436        C  0.62199715  0.25279380  0.77792484    -0.09300
C437        C  0.63309059  0.23853633  0.73177048     0.05400
C438        C  0.61628045  0.24769975  0.68818548    -0.08700
H439        H  0.55873863  0.30651652  0.73806864     0.11000
H440        H  0.63458714  0.24490444  0.81177852     0.08500
H441        H  0.62498004  0.23650292  0.65263110     0.08400
In442      In  0.53700641  0.65066546  0.99859031     1.36900
C443        C  0.58757174  0.69043795  0.49345541     0.79900
O444        O  0.52924167  0.64105756  0.91699257    -0.58600
O445        O  0.49961552  0.68162562  0.95331463    -0.49500
C446        C  0.53574062  0.57830206  0.00100994     0.72500
O447        O  0.54845010  0.61072181  0.53169126    -0.44300
C448        C  0.49026543  0.68266231  0.58315329     0.77200
O449        O  0.59241971  0.65828462  0.00796170    -0.56200
O450        O  0.47708777  0.67494448  0.54212030    -0.46300
O451        O  0.57769132  0.66470782  0.46626128    -0.52600
C452        C  0.50706161  0.66516027  0.91309995     0.87400
O453        O  0.51094834  0.59741467  0.01441047    -0.54500
O454        O  0.52174764  0.67975403  0.58334384    -0.57800
In455      In  0.52119750  0.32400326  0.98923067     1.36900
C456        C  0.96308042  0.29879580  0.51161968     0.79900
O457        O  0.51385138  0.32486561  0.90580795    -0.58600
O458        O  0.56089613  0.30738081  0.93226870    -0.49500
C459        C  0.52548122  0.39631152  0.99269874     0.72500
O460        O  0.99864922  0.38676051  0.49082684    -0.44300
C461        C  0.53464246  0.31457504  0.58666079     0.77200
O462        O  0.96577810  0.30710891  0.04916698    -0.56200
O463        O  0.55066079  0.30963908  0.54587188    -0.46300
O464        O  0.98610768  0.28866769  0.48180020    -0.52600
C465        C  0.54271015  0.31284670  0.89495262     0.87400
O466        O  0.55084347  0.37605926  0.99487239    -0.54500
O467        O  0.50728760  0.33113479  0.58233079    -0.57800
C468        C  0.96165612  0.68520363  0.70469692     0.05400
C469        C  0.97624046  0.67842407  0.75128169    -0.10700
C470        C  0.96156385  0.69199027  0.79610315     0.02900
C471        C  0.93282294  0.71380735  0.79351410    -0.09300
C472        C  0.91737946  0.71974237  0.74757948     0.05400
C473        C  0.93132576  0.70469608  0.70371656    -0.08700
H474        H  0.50160080  0.69112756  0.76559104     0.11000
H475        H  0.92155584  0.72484257  0.82757892     0.08500
H476        H  0.91838518  0.70886269  0.66908651     0.08400
C477        C  0.71326121  0.77583384  0.56222773     0.05400
C478        C  0.68215038  0.75773508  0.56383452    -0.10700
C479        C  0.66656773  0.74655740  0.51999961     0.02900
C480        C  0.69276588  0.74362687  0.96412376    -0.09300
C481        C  0.72007740  0.76779607  0.96301703     0.05400
C482        C  0.72866940  0.78313274  0.51482385    -0.08700
H483        H  0.66988431  0.75208345  0.59969301     0.11000
H484        H  0.68140058  0.73543692  0.92938639     0.08500
H485        H  0.75274925  0.79654101  0.51259849     0.08400
In486      In  0.79243564  0.82954566  0.75941138     1.36900
C487        C  0.84994225  0.79318168  0.76265772     0.79300
O488        O  0.79476121  0.83221914  0.84331368    -0.58600
O489        O  0.75614784  0.80018777  0.81232625    -0.49500
C490        C  0.78340558  0.90103555  0.75678358     0.72500
O491        O  0.81170613  0.88662536  0.74895820    -0.44300
C492        C  0.76919247  0.81281547  0.66879687     0.77200
O493        O  0.84810355  0.82685118  0.77101025    -0.56200
O494        O  0.75378367  0.80428946  0.70910196    -0.46300
O495        O  0.82254484  0.77830343  0.75159427    -0.52600
C496        C  0.77005822  0.81152878  0.85149314     0.87400
O497        O  0.75973562  0.87908086  0.76589572    -0.54500
O498        O  0.79636103  0.82965857  0.67500626    -0.57800
In499      In  0.77367119  0.15412463  0.74376002     1.36900
C500        C  0.72011707  0.19709306  0.74906165     0.79900
O501        O  0.77851734  0.16057584  0.82684448    -0.58600
O502        O  0.82207307  0.16849851  0.78052393    -0.49500
C503        C  0.77148444  0.08223889  0.75209896     0.72500
O504        O  0.74666557  0.10196194  0.76366109    -0.44300
C505        C  0.79407351  0.16876387  0.65015149     0.77200
O506        O  0.71894962  0.16512259  0.73219906    -0.56200
O507        O  0.80613858  0.18461442  0.68761940    -0.46300
O508        O  0.74859026  0.20704765  0.76325642    -0.52600
C509        C  0.80940657  0.16819868  0.82431837     0.87400
O510        O  0.79735041  0.09914680  0.73729808    -0.54500
O511        O  0.77163384  0.14574365  0.66065248    -0.57800
C512        C  0.84446082  0.20640799  0.53604263     0.05400
C513        C  0.82875341  0.19539779  0.49165776    -0.10700
C514        C  0.83434903  0.18800101  0.96080823     0.02900
C515        C  0.86443804  0.20800458  0.95757593    -0.09300
C516        C  0.88907211  0.23504683  0.48571045     0.05400
C517        C  0.87453749  0.22613229  0.53241397    -0.08700
H518        H  0.80482579  0.18172127  0.49378172     0.11000
H519        H  0.87510404  0.21600888  0.92165999     0.08500
H520        H  0.88699028  0.23400926  0.56638504     0.08400
C521        C  0.81573155  0.17713352  0.91536149    -0.14100
C522        C  0.82936651  0.17665751  0.86864869    -0.29300
H523        H  0.78955406  0.16934514  0.92060265     0.14900
H524        H  0.85570119  0.18268919  0.86196717     0.15500
C525        C  0.83060997  0.19883931  0.58729858    -0.14100
C526        C  0.80520081  0.17586802  0.59800449    -0.29300
H527        H  0.84277323  0.21224631  0.61833498     0.14900
H528        H  0.79277849  0.16095167  0.56876661     0.15500
C529        C  0.77849573  0.93970273  0.75565252    -0.16200
C530        C  0.77482004  0.97224280  0.75527852     0.07900
C531        C  0.77166962  0.01049913  0.75524351     0.09700
C532        C  0.77053348  0.04325945  0.75471335    -0.17100
C533        C  0.75914523  0.80153686  0.90316410    -0.14100
C534        C  0.73208379  0.78050740  0.91240115    -0.29300
H535        H  0.77419311  0.81146357  0.93353585     0.14900
H536        H  0.71801300  0.77127092  0.88037688     0.15500
C537        C  0.75691243  0.80402714  0.61807530    -0.14100
C538        C  0.72784692  0.78607801  0.61155021    -0.29300
H539        H  0.77225559  0.81264749  0.58620240     0.14900
H540        H  0.71349921  0.77827361  0.64501112     0.15500
C541        C  0.88564636  0.74024049  0.74481098    -0.14100
C542        C  0.88159893  0.77290034  0.76645390    -0.29300
H543        H  0.86597099  0.72927086  0.72166540     0.14900
H544        H  0.90220389  0.78537497  0.78615095     0.15500
C545        C  0.92117250  0.25534003  0.48172738    -0.14100
C546        C  0.93042477  0.28021426  0.51570920    -0.29300
H547        H  0.93730917  0.25031404  0.44909701     0.14900
H548        H  0.90785301  0.27134859  0.06014154     0.15500
C549        C  0.63315945  0.72886161  0.52374841    -0.14100
C550        C  0.62156517  0.70586808  0.48894225    -0.29300
H551        H  0.61773471  0.73451659  0.55695554     0.14900
H552        H  0.62312789  0.73523618  0.95899381     0.15500
C553        C  0.49211546  0.67352744  0.86462644    -0.14100
C554        C  0.97565665  0.68440926  0.84619484    -0.29300
H555        H  0.49931604  0.65614678  0.83337046     0.14900
H556        H  0.96945468  0.70313047  0.87650554     0.15500
C557        C  0.97916642  0.67201919  0.65811312    -0.14100
C558        C  0.47013235  0.69417252  0.62704251    -0.29300
H559        H  0.00003699  0.65340548  0.66245726     0.14900
H560        H  0.44316779  0.69567614  0.62289174     0.15500
C561        C  0.52780101  0.43534520  0.99505042    -0.16200
C562        C  0.53000898  0.46807653  0.99708893     0.07900
C563        C  0.53266222  0.50644061  0.99929120     0.09700
C564        C  0.53451630  0.53920676  0.00064888    -0.17100
C565        C  0.58340364  0.28932817  0.83181614    -0.14100
C566        C  0.55353189  0.30482455  0.84272654    -0.29300
H567        H  0.60004679  0.28374596  0.86255681     0.14900
H568        H  0.53557596  0.30981895  0.81369452     0.15500
C569        C  0.54664237  0.30275680  0.63599719    -0.14100
C570        C  0.57506545  0.28356140  0.64081485    -0.29300
H571        H  0.53144761  0.31025354  0.66853035     0.14900
H572        H  0.58874970  0.27558128  0.60686384     0.15500
C573        C  0.69069633  0.22107270  0.75274072    -0.14100
C574        C  0.66232326  0.21391348  0.72843745    -0.29300
H575        H  0.69274305  0.24574933  0.77484568     0.14900
H576        H  0.66125746  0.19080790  0.70314310     0.15500
loop_ 
_geom_bond_atom_site_label_1 
_geom_bond_atom_site_label_2 
_geom_bond_distance 
_geom_bond_site_symmetry_2 
_ccdc_geom_bond_type 
C1            C2   1.399       .  A
C1            C6   1.407       .  A
C1          C138   1.480       .  S
C2            C3   1.402       .  A
C2            H7   1.083       .  S
C3            C4   1.400       .  A
C3          C133   1.482       .  S
C4            C5   1.407       .  A
C4            H8   1.083       .  S
C5            C6   1.405       .  A
C5          C142   1.483       .  S
C6            H9   1.082       .  S
In10         O12   2.255       .  S
In10         O13   2.248   1_455  S
In10         O21   2.247       .  S
In10         O17   2.256       .  S
In10        O159   2.246       .  S
In10        O162   2.245   1_455  S
In10        O163   2.247       .  S
In10        O166   2.249       .  S
C11         C118   1.470       .  S
C11          O19   1.258       .  A
C11         O161   1.261   1_556  A
O12          C20   1.258       .  A
O13          C20   1.261   1_655  A
C14          O21   1.259       .  A
C14         O159   1.259       .  A
C14         C132   1.434       .  S
O15        In154   2.249       .  S
O15         C158   1.260   1_556  A
C16         C126   1.476       .  S
C16          O18   1.263   1_455  A
C16          O22   1.256       .  A
O17         C155   1.260       .  A
O18        In154   2.262   1_654  S
O19        In154   2.242       .  S
C20         C121   1.476       .  S
O22        In154   2.244   1_554  S
In23         O25   2.240       .  S
In23         O26   2.236       .  S
In23         O34   2.247       .  S
In23        O460   2.251   1_455  S
In23        O318   2.255   1_455  S
In23        O175   2.240       .  S
In23        O464   2.239   1_455  S
In23        O179   2.244       .  S
C24         C114   1.473       .  S
C24          O32   1.259   1_554  A
C24         O174   1.258       .  A
O25          C33   1.260       .  A
O26          C33   1.261       .  A
C27          O34   1.257       .  A
C27         O460   1.259   1_455  A
C27         C129   1.433       .  S
O28        In455   2.255       .  S
O28         C459   1.260       .  A
C29         C137   1.473       .  S
C29          O31   1.258       .  A
C29          O35   1.260       .  A
O30        In311   2.257       .  S
O30         C168   1.262       .  A
O31        In167   2.256       .  S
O32        In455   2.256       .  S
C33         C134   1.467       .  S
O35        In167   2.232       .  S
C36          C37   1.407       .  A
C36          C41   1.404       .  A
C36         C125   1.488       .  S
C37          C38   1.399       .  A
C37         H330   1.082       .  S
C38          C39   1.404       .  A
C38         C122   1.479       .  S
C39          C40   1.402       .  A
C39          H43   1.083       .  S
C40          C41   1.407       .  A
C40         C109   1.481       .  S
C41          H44   1.083       .  S
H42         C325   1.077       .  S
C45          C46   1.401       .  A
C45          C50   1.404       .  A
C45         C106   1.481       .  S
C46          C47   1.403       .  A
C46          H51   1.085       .  S
C47         C192   1.408   1_554  A
C47         C117   1.480       .  S
C48          C49   1.405       .  A
C48         C191   1.400       .  A
C48          H52   1.083       .  S
C49         C194   1.401       .  A
C49         C102   1.482       .  S
C50         C193   1.398   1_554  A
C50          H53   1.082       .  S
In54         O56   2.244       .  S
In54         O57   2.240       .  S
In54         O65   2.238       .  S
In54         O59   2.256       .  S
In54         O61   2.252       .  S
In54         O62   2.243       .  S
In54         O63   2.239       .  S
In54         O66   2.232       .  S
C55         C110   1.472       .  S
C55          O61   1.260       .  A
C55          O63   1.260       .  A
O56          C64   1.262       .  A
O57          C64   1.258       .  A
C58          O65   1.256       .  A
C58          O59   1.259       .  A
C58          C97   1.433       .  S
C60         C105   1.464       .  S
C60          O62   1.260       .  A
C60          O66   1.258       .  A
C64         C101   1.470       .  S
In67         O69   2.234       .  S
In67         O70   2.247       .  S
In67         O78   2.245       .  S
In67         O72   2.256       .  S
In67         O74   2.253       .  S
In67         O75   2.246       .  S
In67         O76   2.241       .  S
In67         O79   2.245       .  S
C68         C141   1.469       .  S
C68          O74   1.262       .  A
C68          O76   1.258       .  A
O69          C77   1.263       .  A
O70          C77   1.261       .  A
C71          O78   1.256       .  A
C71          O72   1.258       .  A
C71         C100   1.433       .  S
C73          C94   1.469       .  S
C73          O75   1.259       .  A
C73          O79   1.257       .  A
C77          C90   1.473       .  S
C80          C81   1.406       .  A
C80          C85   1.402       .  A
C80          C93   1.483       .  S
C81         C226   1.401   1_554  A
C81          H86   1.083       .  S
C82          C83   1.408       .  A
C82         C225   1.401       .  A
C82          C89   1.484       .  S
C83         C228   1.407       .  A
C83          H87   1.081       .  S
C84          C85   1.404   1_556  A
C84         C227   1.402       .  A
C84         C113   1.480       .  S
C85          H88   1.084       .  S
C89          C90   1.343       .  D
C89          H91   1.088       .  S
C90          H92   1.085       .  S
C93          C94   1.343       .  D
C93          H95   1.087       .  S
C94          H96   1.084       .  S
C97          C98   1.204       .  T
C98          C99   1.410   1_565  S
C99         C100   1.204       .  T
C101        C102   1.342       .  D
C101        H103   1.086       .  S
C102        H104   1.087       .  S
C105        C106   1.344       .  D
C105        H107   1.085       .  S
C106        H108   1.087       .  S
C109        C110   1.343       .  D
C109        H111   1.087       .  S
C110        H112   1.086       .  S
C113        C114   1.343   1_556  D
C113        H115   1.087       .  S
C114        H260   1.087       .  S
H116        C258   1.086       .  S
C117        C118   1.342   1_554  D
C117        H119   1.087       .  S
C118        H264   1.086       .  S
H120        C262   1.087       .  S
C121        C410   1.344   1_455  D
C121        H123   1.083       .  S
C122        C409   1.342       .  D
C122        H124   1.087       .  S
C125        C414   1.345       .  D
C125        H127   1.087       .  S
C126        C413   1.343   1_455  D
C126        H128   1.084       .  S
C129        C130   1.205       .  T
C130        C131   1.411       .  S
C131        C132   1.205       .  T
C133        C134   1.345       .  D
C133        H135   1.087       .  S
C134        H136   1.085       .  S
C137        C138   1.342       .  D
C137        H139   1.085       .  S
C138        H140   1.088       .  S
C141        C142   1.344       .  D
C141        H143   1.086       .  S
C142        H144   1.087       .  S
C145        C146   1.401       .  A
C145        C150   1.409       .  A
C145        C282   1.485       .  S
C146        C147   1.406       .  A
C146        H151   1.080       .  S
C147        C148   1.400       .  A
C147        C277   1.485       .  S
C148        C149   1.404       .  A
C148        H152   1.083       .  S
C149        C150   1.403       .  A
C149        C286   1.484       .  S
C150        H153   1.081       .  S
In154       O156   2.242       .  S
In154       O157   2.255       .  S
In154       O165   2.243   1_556  S
In154       O161   2.249   1_556  S
C155        C262   1.471       .  S
C155        O163   1.256       .  A
O156        C164   1.261       .  A
O157        C164   1.264       .  A
C158        O165   1.259       .  A
C158        C276   1.434       .  S
C160        C270   1.475       .  S
C160        O162   1.262       .  A
C160        O166   1.262   1_655  A
C164        C265   1.476   1_455  S
In167       O169   2.236   1_554  S
In167       O170   2.231   1_554  S
In167       O178   2.244       .  S
In167       O316   2.242   1_455  S
In167       O462   2.253   1_455  S
In167       O320   2.237   1_454  S
C168        C258   1.469       .  S
C168        O176   1.257       .  A
O169        C177   1.260       .  A
O170        C177   1.262       .  A
C171        O178   1.260       .  A
C171        O316   1.260   1_455  A
C171        C273   1.433       .  S
O172       In311   2.247       .  S
O172        C315   1.261       .  A
C173        C281   1.470       .  S
C173        O175   1.258       .  A
C173        O179   1.261       .  A
O174       In455   2.251   1_554  S
O176       In311   2.237       .  S
C177        C278   1.467       .  S
C180        C181   1.399       .  A
C180        C185   1.402       .  A
C180        C269   1.482       .  S
C181        C182   1.408       .  A
C181        H474   1.082       .  S
C182        C183   1.406       .  A
C182        C266   1.487       .  S
C183        C184   1.407       .  A
C183        H187   1.084       .  S
C184        C185   1.399       .  A
C184        C253   1.476       .  S
C185        H188   1.082       .  S
H186        C469   1.082       .  S
C189        C190   1.406       .  A
C189        C194   1.409       .  A
C189        C250   1.491       .  S
C190        C191   1.406       .  A
C190        H195   1.084       .  S
C191        C261   1.480       .  S
C192        C193   1.405       .  A
C192        H196   1.082       .  S
C193        C246   1.481       .  S
C194        H197   1.081       .  S
In198       O200   2.237       .  S
In198       O201   2.251       .  S
In198       O209   2.244       .  S
In198       O203   2.239       .  S
In198       O205   2.259       .  S
In198       O206   2.253       .  S
In198       O207   2.230       .  S
In198       O210   2.237       .  S
C199        C254   1.473       .  S
C199        O205   1.259       .  A
C199        O207   1.260       .  A
O200        C208   1.260       .  A
O201        C208   1.259       .  A
C202        O209   1.258       .  A
C202        O203   1.258       .  A
C202        C241   1.430       .  S
C204        C249   1.473       .  S
C204        O206   1.263       .  A
C204        O210   1.260       .  A
C208        C245   1.472       .  S
In211       O213   2.246       .  S
In211       O214   2.247       .  S
In211       O222   2.239       .  S
In211       O216   2.246       .  S
In211       O218   2.250       .  S
In211       O219   2.227       .  S
In211       O220   2.242       .  S
In211       O223   2.236       .  S
C212        C285   1.470       .  S
C212        O218   1.260       .  A
C212        O220   1.260       .  A
O213        C221   1.261       .  A
O214        C221   1.258       .  A
C215        O222   1.256       .  A
C215        O216   1.258       .  A
C215        C244   1.429       .  S
C217        C238   1.465       .  S
C217        O219   1.262       .  A
C217        O223   1.259       .  A
C221        C234   1.472       .  S
C224        C225   1.405       .  A
C224        C229   1.400       .  A
C224        C237   1.481       .  S
C225        H230   1.081       .  S
C226        C227   1.408       .  A
C226        C233   1.483       .  S
C227        H231   1.082       .  S
C228        C229   1.398       .  A
C228        C257   1.478       .  S
C229        H232   1.084       .  S
C233        C234   1.343       .  D
C233        H235   1.087       .  S
C234        H236   1.085       .  S
C237        C238   1.343       .  D
C237        H239   1.087       .  S
C238        H240   1.083       .  S
C241        C242   1.202       .  T
C242        C243   1.406   1_565  S
C243        C244   1.202       .  T
C245        C246   1.342       .  D
C245        H247   1.084       .  S
C246        H248   1.087       .  S
C249        C250   1.347       .  D
C249        H251   1.083       .  S
C250        H252   1.087       .  S
C253        C254   1.341       .  D
C253        H255   1.087       .  S
C254        H256   1.086       .  S
C257        C258   1.339       .  D
C257        H259   1.087       .  S
C261        C262   1.341       .  D
C261        H263   1.087       .  S
C265        C554   1.345       .  D
C265        H267   1.084       .  S
C266        C553   1.346       .  D
C266        H268   1.087       .  S
C269        C558   1.344       .  D
C269        H271   1.087       .  S
C270        C557   1.349       .  D
C270        H272   1.082       .  S
C273        C274   1.205       .  T
C274        C275   1.411       .  S
C275        C276   1.205       .  T
C277        C278   1.343       .  D
C277        H279   1.088       .  S
C278        H280   1.083       .  S
C281        C282   1.342       .  D
C281        H283   1.084       .  S
C282        H284   1.088       .  S
C285        C286   1.345       .  D
C285        H287   1.085       .  S
C286        H288   1.087       .  S
C289        C290   1.410       .  A
C289        C294   1.409       .  A
C289        C426   1.493       .  S
C290        C291   1.411       .  A
C290        H295   1.080       .  S
C291        C292   1.402       .  A
C291        C421   1.493       .  S
C292        C293   1.403       .  A
C292        H296   1.083       .  S
C293        C294   1.401       .  A
C293        C430   1.481       .  S
C294        H297   1.080       .  S
In298       O300   2.239       .  S
In298       O301   2.247       .  S
In298       O309   2.245       .  S
In298       O447   2.261       .  S
In298       O305   2.229       .  S
In298       O450   2.241       .  S
In298       O451   2.255       .  S
In298       O454   2.240       .  S
C299        C406   1.468       .  S
C299        O449   1.261   1_556  A
C299        O307   1.258       .  A
O300        C308   1.261       .  A
O301        C308   1.259       .  A
C302        O309   1.256       .  A
C302        O447   1.258       .  A
C302        C420   1.436       .  S
O303       In442   2.254       .  S
O303        C446   1.259   1_556  A
C304        C414   1.471       .  S
C304        O306   1.261       .  A
C304        O310   1.258       .  A
O305        C443   1.259       .  A
O306       In442   2.257   1_554  S
O307       In442   2.244       .  S
C308        C409   1.471       .  S
O310       In442   2.238   1_554  S
In311       O313   2.248       .  S
In311       O314   2.245       .  S
In311       O322   2.244       .  S
In311       O463   2.262       .  S
In311       O467   2.247       .  S
C312        C402   1.469       .  S
C312        O462   1.258       .  A
C312        O320   1.258   1_554  A
O313        C321   1.261       .  A
O314        C321   1.264       .  A
C315        O322   1.260       .  A
C315        C417   1.436       .  S
C317        C425   1.477       .  S
C317        O319   1.259       .  A
C317        O323   1.259       .  A
O318        C456   1.260       .  A
O319       In455   2.249   1_554  S
C321        C422   1.478       .  S
O323       In455   2.262   1_554  S
C324        C325   1.414       .  A
C324        C329   1.402       .  A
C324        C413   1.490       .  S
C325        C326   1.413       .  A
C326        C327   1.402       .  A
C326        C410   1.491       .  S
C327        C328   1.399       .  A
C327        H331   1.084       .  S
C328        C329   1.397       .  A
C328        C397   1.475       .  S
C329        H332   1.085       .  S
C333        C334   1.402       .  A
C333        C338   1.419       .  A
C333        C394   1.496       .  S
C334        C335   1.394       .  A
C334        H339   1.085       .  S
C335        C480   1.399   1_554  A
C335        C405   1.476       .  S
C336        C479   1.399       .  A
C336        C337   1.400       .  A
C336        H340   1.082       .  S
C337        C482   1.419       .  A
C337        C390   1.494       .  S
C338        C481   1.421   1_554  A
C338        H341   1.078       .  S
In342       O344   2.239       .  S
In342       O345   2.274       .  S
In342       O353   2.235       .  S
In342       O347   2.220       .  S
In342       O349   2.237       .  S
In342       O350   2.265       .  S
In342       O351   2.233       .  S
In342       O354   2.249       .  S
C343        C398   1.465       .  S
C343        O349   1.259       .  A
C343        O351   1.261       .  A
O344        C352   1.256       .  A
O345        C352   1.267       .  A
C346        O353   1.262       .  A
C346        O347   1.261       .  A
C346        C385   1.426       .  S
C348        C393   1.485       .  S
C348        O350   1.268       .  A
C348        O354   1.259       .  A
C352        C389   1.481       .  S
In355       O357   2.242       .  S
In355       O358   2.245       .  S
In355       O366   2.231       .  S
In355       O360   2.240       .  S
In355       O362   2.250       .  S
In355       O363   2.259       .  S
In355       O364   2.240       .  S
In355       O367   2.243       .  S
C356        C429   1.468       .  S
C356        O362   1.261       .  A
C356        O364   1.257       .  A
O357        C365   1.261       .  A
O358        C365   1.265       .  A
C359        O366   1.258       .  A
C359        O360   1.260       .  A
C359        C388   1.427       .  S
C361        C382   1.475       .  S
C361        O363   1.262       .  A
C361        O367   1.257       .  A
C365        C378   1.475       .  S
C368        C369   1.412       .  A
C368        C373   1.403       .  A
C368        C381   1.490       .  S
C369        C514   1.407   1_554  A
C369        H374   1.082       .  S
C370        C513   1.412       .  A
C370        C371   1.403       .  A
C370        C377   1.490       .  S
C371        C516   1.400       .  A
C371        H375   1.084       .  S
C372        C515   1.399   1_554  A
C372        C373   1.403       .  A
C372        C401   1.479   1_554  S
C373        H376   1.083       .  S
C377        C378   1.345       .  D
C377        H379   1.088       .  S
C378        H380   1.084       .  S
C381        C382   1.344       .  D
C381        H383   1.087       .  S
C382        H384   1.083       .  S
C385        C386   1.200       .  T
C386        C387   1.404   1_565  S
C387        C388   1.201       .  T
C389        C390   1.341       .  D
C389        H391   1.084       .  S
C390        H392   1.088       .  S
C393        C394   1.344       .  D
C393        H395   1.084       .  S
C394        H396   1.088       .  S
C397        C398   1.341       .  D
C397        H399   1.087       .  S
C398        H400   1.086       .  S
C401        C402   1.342   1_556  D
C401        H403   1.087       .  S
C402        H548   1.085       .  S
H404        C546   1.085       .  S
C405        C406   1.341   1_554  D
C405        H407   1.087       .  S
C406        H552   1.087       .  S
H408        C550   1.085       .  S
C409        H411   1.086       .  S
C410        H412   1.088       .  S
C413        H415   1.087       .  S
C414        H416   1.084       .  S
C417        C418   1.206       .  T
C418        C419   1.413       .  S
C419        C420   1.206       .  T
C421        C422   1.346       .  D
C421        H423   1.087       .  S
C422        H424   1.082       .  S
C425        C426   1.349       .  D
C425        H427   1.083       .  S
C426        H428   1.087       .  S
C429        C430   1.342       .  D
C429        H431   1.086       .  S
C430        H432   1.087       .  S
C433        C434   1.415       .  A
C433        C438   1.404       .  A
C433        C570   1.494       .  S
C434        C435   1.413       .  A
C434        H439   1.078       .  S
C435        C436   1.404       .  A
C435        C565   1.494       .  S
C436        C437   1.402       .  A
C436        H440   1.084       .  S
C437        C438   1.398       .  A
C437        C574   1.479       .  S
C438        H441   1.084       .  S
In442       O444   2.236       .  S
In442       O445   2.252       .  S
In442       O453   2.250   1_556  S
In442       O449   2.245   1_556  S
C443        C550   1.470       .  S
C443        O451   1.261       .  A
O444        C452   1.260       .  A
O445        C452   1.262       .  A
C446        O453   1.259       .  A
C446        C564   1.439       .  S
C448        C558   1.467       .  S
C448        O450   1.258       .  A
C448        O454   1.259       .  A
C452        C553   1.470       .  S
In455       O457   2.254       .  S
In455       O458   2.254       .  S
In455       O466   2.254       .  S
C456        C546   1.470       .  S
C456        O464   1.258       .  A
O457        C465   1.260       .  A
O458        C465   1.262       .  A
C459        O466   1.260       .  A
C459        C561   1.440       .  S
C461        C569   1.478       .  S
C461        O463   1.263       .  A
C461        O467   1.258       .  A
C465        C566   1.480       .  S
C468        C469   1.408       .  A
C468        C473   1.408       .  A
C468        C557   1.493       .  S
C469        C470   1.411       .  A
C470        C471   1.403       .  A
C470        C554   1.489       .  S
C471        C472   1.403       .  A
C471        H475   1.084       .  S
C472        C473   1.399       .  A
C472        C541   1.477       .  S
C473        H476   1.080       .  S
C477        C478   1.405       .  A
C477        C482   1.419       .  A
C477        C538   1.500       .  S
C478        C479   1.399       .  A
C478        H483   1.084       .  S
C479        C549   1.482       .  S
C480        C481   1.403       .  A
C480        H484   1.084       .  S
C481        C534   1.497       .  S
C482        H485   1.078       .  S
In486       O488   2.246       .  S
In486       O489   2.269       .  S
In486       O497   2.247       .  S
In486       O491   2.249       .  S
In486       O493   2.249       .  S
In486       O494   2.265       .  S
In486       O495   2.244       .  S
In486       O498   2.255       .  S
C487        C542   1.473       .  S
C487        O493   1.261       .  A
C487        O495   1.261       .  A
O488        C496   1.258       .  A
O489        C496   1.265       .  A
C490        O497   1.259       .  A
C490        O491   1.260       .  A
C490        C529   1.437       .  S
C492        C537   1.486       .  S
C492        O494   1.265       .  A
C492        O498   1.260       .  A
C496        C533   1.483       .  S
In499       O501   2.244       .  S
In499       O502   2.247       .  S
In499       O510   2.239       .  S
In499       O504   2.255       .  S
In499       O506   2.247       .  S
In499       O507   2.254       .  S
In499       O508   2.246       .  S
In499       O511   2.244       .  S
C500        C573   1.471       .  S
C500        O506   1.260       .  A
C500        O508   1.258       .  A
O501        C509   1.262       .  A
O502        C509   1.263       .  A
C503        O510   1.258       .  A
C503        O504   1.261       .  A
C503        C532   1.436       .  S
C505        C526   1.474       .  S
C505        O507   1.262       .  A
C505        O511   1.257       .  A
C509        C522   1.474       .  S
C512        C513   1.412       .  A
C512        C517   1.401       .  A
C512        C525   1.489       .  S
C513        H518   1.077       .  S
C514        C515   1.406       .  A
C514        C521   1.491       .  S
C515        H519   1.080       .  S
C516        C517   1.401       .  A
C516        C545   1.481       .  S
C517        H520   1.083       .  S
C521        C522   1.349       .  D
C521        H523   1.087       .  S
C522        H524   1.083       .  S
C525        C526   1.343       .  D
C525        H527   1.087       .  S
C526        H528   1.083       .  S
C529        C530   1.206       .  T
C530        C531   1.413   1_565  S
C531        C532   1.206       .  T
C533        C534   1.343       .  D
C533        H535   1.083       .  S
C534        H536   1.087       .  S
C537        C538   1.347       .  D
C537        H539   1.083       .  S
C538        H540   1.087       .  S
C541        C542   1.342       .  D
C541        H543   1.087       .  S
C542        H544   1.086       .  S
C545        C546   1.346       .  D
C545        H547   1.087       .  S
C549        C550   1.346       .  D
C549        H551   1.087       .  S
C553        H555   1.085       .  S
C554        H556   1.087       .  S
C557        H559   1.087   1_655  S
C558        H560   1.084       .  S
C561        C562   1.208       .  T
C562        C563   1.416       .  S
C563        C564   1.208   1_556  T
C565        C566   1.347       .  D
C565        H567   1.087       .  S
C566        H568   1.083       .  S
C569        C570   1.345       .  D
C569        H571   1.083       .  S
C570        H572   1.087       .  S
C573        C574   1.342       .  D
C573        H575   1.087       .  S
C574        H576   1.087       .  S
