geometry optimzed in LAMMPS
_audit_creation_date              2020-11-30 
_audit_creation_method            'lammps2cif' 
_symmetry_space_group_name_H-M    'P1' 
_symmetry_Int_Tables_number       1 
_symmetry_cell_setting            triclinic 
loop_ 
_symmetry_equiv_pos_as_xyz 
  x,y,z 
_cell_length_a                    43.04990768109009 
_cell_length_b                    33.16198568188344 
_cell_length_c                    28.87287940863204 
_cell_angle_alpha                 89.89417816822379 
_cell_angle_beta                  81.69191705307225 
_cell_angle_gamma                 113.05913411993569 
loop_ 
_atom_site_label 
_atom_site_type_symbol 
_atom_site_fract_x 
_atom_site_fract_y 
_atom_site_fract_z 
_atom_site_charge 
C1          C  0.36206382  0.18561589  0.00332926     0.42470
N2          N  0.36656766  0.20622343  0.07277848     0.01360
C3          C  0.33500191  0.07531521  0.27197614    -0.06520
H4          H  0.23458402  0.03430015  0.15256659     0.06850
C5          C  0.21909366  0.15912627  0.22834933    -0.06870
Co6        Co  0.36203849  0.13354736  0.13692387     0.74180
N7          N  0.28762941  0.07298549  0.15608359    -0.26050
Co8        Co  0.28816923  0.10326877  0.21896455     0.74070
C9          C  0.19780191  0.11428810  0.24805430     0.42570
N10         N  0.29755714  0.24018923  0.15007117     0.00970
N11         N  0.24615160  0.11708752  0.21055527     0.01080
N12         N  0.38427712  0.10009425  0.22079613    -0.46900
H13         H  0.36017974  0.11766112  0.02328035     0.06840
N14         N  0.31591480  0.08316832  0.12565057     0.01360
N15         N  0.28952298  0.13634097  0.27923480     0.01100
C16         C  0.29286401  0.15305476  0.35008843     0.42710
N17         N  0.32646735  0.25311210  0.12046401    -0.25510
C18         C  0.43787689  0.18479684  0.12468185    -0.06430
N19         N  0.36479473  0.21944333  0.03049105    -0.46610
N20         N  0.28977974  0.12072558  0.32100334    -0.46830
C21         C  0.45979055  0.23001200  0.10737568     0.42480
N22         N  0.35899804  0.10366801  0.20199483     0.01350
N23         N  0.36923355  0.27129560  0.19578305    -0.25530
N24         N  0.36456217  0.16555121  0.07476051    -0.26020
N25         N  0.34101237  0.26035968  0.22648639     0.00990
H26         H  0.42206956  0.31110958  0.19877210     0.06880
H27         H  0.29819454  0.22343275  0.33287773     0.06920
N28         N  0.33018418  0.09058898  0.23176987    -0.26070
N29         N  0.24905670  0.15827994  0.20910851    -0.25680
N30         N  0.41055605  0.22662125  0.14224962     0.01360
C31         C  0.27603151  0.04081057  0.08921485     0.42750
C32         C  0.32198083  0.26829021  0.08008991    -0.06930
N33         N  0.29262976  0.17750922  0.27860376    -0.25680
H34         H  0.21619681  0.18902518  0.23802142     0.06900
N35         N  0.30999574  0.06491349  0.08522158    -0.46900
H36         H  0.34109078  0.27949834  0.04900805     0.06890
C37         C  0.38058989  0.30390191  0.26269628     0.42590
C38         C  0.36284040  0.15036510  0.03224030    -0.06430
Co39       Co  0.36849312  0.24048002  0.13303169     0.73820
N40         N  0.27238705  0.24371689  0.13062759    -0.46620
C41         C  0.37093242  0.08195336  0.26505582     0.42850
N42         N  0.44127934  0.25377086  0.12171077    -0.46610
Co43       Co  0.29483717  0.21015257  0.21572034     0.73890
C44         C  0.29458686  0.19086537  0.32221453    -0.06940
C45         C  0.26114051  0.04610611  0.13659141    -0.06500
N46         N  0.40772375  0.18544539  0.14342952    -0.26030
N47         N  0.21586096  0.09029838  0.23275434    -0.46790
H48         H  0.31647284  0.06481266  0.30365543     0.06860
C49         C  0.39560455  0.29900181  0.21507812    -0.06910
Cl50       Cl  0.32838547  0.17194781  0.17617733    -0.49910
C51         C  0.28594945  0.26128013  0.08602872     0.42620
H52         H  0.44052658  0.15541528  0.11214616     0.06830
N53         N  0.34681047  0.27866853  0.26679607    -0.46630
C54         C  0.28194026  0.02692079  0.58935448     0.42470
N55         N  0.32147522  0.07078867  0.62515925     0.01360
C56         C  0.29457868  0.18771400  0.81280601    -0.06520
H57         H  0.22036146  0.17637778  0.73464192     0.06850
C58         C  0.32689991  0.25228932  0.57032011    -0.06870
Co59       Co  0.29373241  0.09402185  0.71738858     0.74180
N60         N  0.25377241  0.14706474  0.70294506    -0.26050
Co61       Co  0.29933384  0.20003185  0.70730585     0.74070
C62         C  0.29082028  0.24502379  0.57626461     0.42570
N63         N  0.37292163  0.19240747  0.56806324     0.00970
N64         N  0.30263868  0.22662439  0.64084332     0.01080
N65         N  0.29352749  0.11928364  0.82015808    -0.46900
H66         H  0.24027345  0.02100165  0.65214622     0.06840
N67         N  0.25166041  0.10620899  0.70527764     0.01360
N68         N  0.34527391  0.25122753  0.71736460     0.01100
C69         C  0.38477799  0.29300150  0.75455471     0.42710
N70         N  0.37018399  0.15148261  0.57102836    -0.25510
C71         C  0.34122215  0.07058562  0.77397159    -0.06430
N72         N  0.31570844  0.05192281  0.58502890    -0.46610
N73         N  0.35075475  0.27014273  0.75751077    -0.46830
C74         C  0.37690465  0.07556827  0.76670307     0.42480
N75         N  0.29462931  0.13099470  0.77601502     0.01350
N76         N  0.41269732  0.17326736  0.64212392    -0.25530
N77         N  0.29327640  0.06069786  0.65575486    -0.26020
N78         N  0.41592697  0.21442766  0.63725680     0.00990
H79         H  0.44564919  0.14084112  0.61883973     0.06880
H80         H  0.42698779  0.29695787  0.69342677     0.06920
N81         N  0.29610788  0.17124185  0.77111333    -0.26070
N82         N  0.33164917  0.23898685  0.61153335    -0.25680
N83         N  0.36420730  0.09356344  0.70214240     0.01360
C84         C  0.20258805  0.10188676  0.74140926     0.42750
C85         C  0.36878206  0.13628941  0.52819394    -0.06930
N86         N  0.37391444  0.26002511  0.68801118    -0.25680
H87         H  0.34562988  0.26203854  0.53879169     0.06900
N88         N  0.22140621  0.07877411  0.72668573    -0.46900
H89         H  0.36603155  0.10355728  0.51940978     0.06890
C90         C  0.46457581  0.21483768  0.60392348     0.42590
C91         C  0.26691632  0.03269358  0.63658108    -0.06430
Co92       Co  0.36729231  0.12121736  0.63551885     0.73820
N93         N  0.37265908  0.20598891  0.52536822    -0.46620
C94         C  0.29364341  0.15377880  0.84512381     0.42850
N95         N  0.38946755  0.09013757  0.72117474    -0.46610
Co96       Co  0.37388264  0.22771700  0.62651271     0.73890
C97         C  0.40026433  0.28643058  0.70814608    -0.06940
C98         C  0.22361023  0.14710781  0.72292973    -0.06500
N99         N  0.33594302  0.08312819  0.73262746    -0.26030
N100        N  0.27733623  0.22891144  0.62102810    -0.46790
H101        H  0.29535053  0.22016352  0.81939663     0.06860
C102        C  0.44278458  0.17126410  0.62608356    -0.06910
Cl103      Cl  0.33356091  0.16068600  0.67172135    -0.49910
C104        C  0.36989282  0.17238125  0.49817017     0.42620
H105        H  0.32292311  0.06200463  0.80593657     0.06830
N106        N  0.44660453  0.23990046  0.61492233    -0.46630
C107        C  0.21873386  0.24397694  0.42014977     0.42470
N108        N  0.17805910  0.24760283  0.38665666     0.01360
C109        C  0.19994776  0.38585882  0.19650968    -0.06520
H110        H  0.27759712  0.45638000  0.27602000     0.06850
C111        C  0.17031902  0.42230987  0.44025150    -0.06870
Co112      Co  0.20495602  0.29845024  0.29435598     0.74180
N113        N  0.24489143  0.39260095  0.30690920    -0.26050
Co114      Co  0.19901111  0.39857062  0.30268668     0.74070
C115        C  0.20648810  0.45077784  0.43633559     0.42570
N116        N  0.12579954  0.31663893  0.44351626     0.00970
N117        N  0.19575800  0.42218881  0.37003460     0.01080
N118        N  0.20178542  0.31880412  0.19294741    -0.46900
H119        H  0.25870703  0.27983491  0.35489405     0.06840
N120        N  0.24732978  0.35412216  0.30420661     0.01360
N121        N  0.15286681  0.40276552  0.29233290     0.01100
C122        C  0.11293911  0.40362700  0.25499501     0.42710
N123        N  0.12929953  0.27893617  0.44093306    -0.25510
C124        C  0.15880688  0.22406848  0.24075245    -0.06430
N125        N  0.18472422  0.23402483  0.42585973    -0.46610
N126        N  0.14703321  0.41544897  0.25196461    -0.46830
C127        C  0.12345088  0.19251828  0.24775745     0.42480
N128        N  0.20316688  0.33259298  0.23564378     0.01350
N129        N  0.08538344  0.25649107  0.37305614    -0.25530
N130        N  0.20587028  0.26665253  0.35553280    -0.26020
N131        N  0.08290828  0.29502455  0.37281600     0.00990
H132        H  0.05251226  0.19443754  0.40840043     0.06880
H133        H  0.07133012  0.36586878  0.31756768     0.06920
N134        N  0.20137996  0.37128289  0.23882308    -0.26070
N135        N  0.16643951  0.40495084  0.39866712    -0.25680
N136        N  0.13436771  0.22607705  0.31107835     0.01360
C137        C  0.29599729  0.40042633  0.26707734     0.42750
C138        C  0.13103238  0.26531172  0.48363537    -0.06930
N139        N  0.12440309  0.38275235  0.32205691    -0.25680
H140        H  0.15039224  0.41327349  0.47028579     0.06900
N141        N  0.27743677  0.35793787  0.28160287    -0.46900
H142        H  0.13465750  0.23590461  0.49227672     0.06890
C143        C  0.03426996  0.25030432  0.41095841     0.42590
C144        C  0.23268599  0.26532193  0.37287123    -0.06430
Co145      Co  0.13156837  0.25102174  0.37754955     0.73820
N146        N  0.12557106  0.33023953  0.48636295    -0.46620
C147        C  0.19945379  0.35059079  0.16636546     0.42850
N148        N  0.10965276  0.19574174  0.29225231    -0.46610
Co149      Co  0.12465980  0.35071697  0.38383581     0.73890
C150        C  0.09790266  0.38219054  0.30209321    -0.06940
C151        C  0.27481984  0.42374691  0.28674171    -0.06500
N152        N  0.16299232  0.24381939  0.28104285    -0.26030
N153        N  0.22064100  0.44938179  0.39134261    -0.46790
H154        H  0.19714608  0.41600570  0.18866724     0.06860
C155        C  0.05539264  0.22618394  0.39429526    -0.06910
Cl156      Cl  0.16504896  0.32464015  0.33959716    -0.49910
C157        C  0.12870572  0.29958588  0.51360782     0.42620
H158        H  0.17758722  0.23301302  0.20924643     0.06830
N159        N  0.05260098  0.29199398  0.39370412    -0.46630
C160        C  0.21304994  0.25864606  0.92908593     0.42470
N161        N  0.17310107  0.26020691  0.89239128     0.01360
C162        C  0.19442638  0.39488170  0.69929053    -0.06520
H163        H  0.27155541  0.47002816  0.78792546     0.06850
C164        C  0.16576981  0.43682712  0.94197120    -0.06870
Co165      Co  0.20089538  0.31026787  0.79950460     0.74180
N166        N  0.23914850  0.40458292  0.81231836    -0.26050
Co167      Co  0.19323083  0.40959310  0.80572451     0.74070
C168        C  0.20147172  0.46776889  0.93532127     0.42570
N169        N  0.12061561  0.32916856  0.94700863     0.00970
N170        N  0.18998293  0.43509921  0.87156243     0.01080
N171        N  0.19974642  0.32986597  0.69701812    -0.46900
H172        H  0.25446857  0.29568431  0.86602165     0.06840
N173        N  0.24258346  0.36676657  0.80915167     0.01360
N174        N  0.14698410  0.41250399  0.79512452     0.01100
C175        C  0.10733531  0.41678943  0.76006970     0.42710
N176        N  0.12338341  0.29101691  0.94462811    -0.25510
C177        C  0.15483689  0.23730557  0.74445441    -0.06430
N178        N  0.17906902  0.24816715  0.93297755    -0.46610
N179        N  0.14103475  0.42554281  0.75515697    -0.46830
C180        C  0.11876278  0.20807035  0.74953870     0.42480
N181        N  0.19947103  0.34366169  0.73977242     0.01350
N182        N  0.08085272  0.26808693  0.87529319    -0.25530
N183        N  0.20139829  0.27915230  0.86199257    -0.26020
N184        N  0.07766165  0.30616036  0.87745820     0.00990
H185        H  0.04888347  0.20398234  0.90597136     0.06880
H186        H  0.06595717  0.38112620  0.82364302     0.06920
N187        N  0.19609159  0.38145964  0.74217727    -0.26070
N188        N  0.16122758  0.41771307  0.90133048    -0.25680
N189        N  0.13013254  0.23818181  0.81483787     0.01360
C190        C  0.29120430  0.41515151  0.77414600     0.42750
C191        C  0.12341955  0.27650175  0.98765973    -0.06930
N192        N  0.11883323  0.39414609  0.82582944    -0.25680
H193        H  0.14702338  0.42718494  0.97340205     0.06900
N194        N  0.27325723  0.37211915  0.78721946    -0.46900
H195        H  0.12615488  0.24649417  0.99640093     0.06890
C196        C  0.02940221  0.25879730  0.91437136     0.42590
C197        C  0.22792201  0.27933282  0.88162802    -0.06430
Co198      Co  0.12675209  0.26312969  0.88124908     0.73820
N199        N  0.11960119  0.34247125  0.98992138    -0.46620
C200        C  0.19661903  0.36039095  0.66958448     0.42850
N201        N  0.10498816  0.21041787  0.79436941    -0.46610
Co202      Co  0.11941874  0.36268275  0.88757935     0.73890
C203        C  0.09244196  0.39567512  0.80723856    -0.06940
C204        C  0.26910273  0.43691356  0.79500414    -0.06500
N205        N  0.15919231  0.25533893  0.78565757    -0.26030
N206        N  0.21500538  0.46452092  0.89073553    -0.46790
H207        H  0.19093374  0.42428716  0.69018565     0.06860
C208        C  0.05116340  0.23633082  0.89494831    -0.06910
Cl209      Cl  0.16007421  0.33644204  0.84353410    -0.49910
C210        C  0.12148328  0.31105160  0.01754466     0.42620
H211        H  0.17392197  0.24700364  0.71334838     0.06830
N212        N  0.04723110  0.30142780  0.89969206    -0.46630
C213        C  0.44925577  0.36025111  0.91729782     0.42470
N214        N  0.48926911  0.40203636  0.95364340     0.01360
C215        C  0.96682789  0.01188480  0.14827527    -0.06520
H216        H  0.39099911  0.50829275  0.06881267     0.06850
C217        C  0.49383878  0.08432908  0.90626690    -0.06870
Co218      Co  0.46205381  0.42227278  0.04738189     0.74180
N219        N  0.42253928  0.47693971  0.03733546    -0.26050
Co220      Co  0.46838799  0.02881205  0.04265890     0.74070
C221        C  0.45777635  0.07746355  0.91370727     0.42570
N222        N  0.04076293  0.02515857  0.89938981     0.00970
N223        N  0.47081744  0.05782681  0.97712628     0.01080
N224        N  0.96461899  0.44271912  0.15013914    -0.46900
H225        H  0.40781639  0.35355293  0.98061771     0.06840
N226        N  0.41951947  0.43572014  0.03938579     0.01360
N227        N  0.01447064  0.07927976  0.05286071     0.01100
C228        C  0.05474165  0.12130775  0.08891167     0.42710
N229        N  0.03757068  0.48398925  0.90059262    -0.25510
C230        C  0.00918890  0.39505040  0.09988245    -0.06430
N231        N  0.48318760  0.38415902  0.91313623    -0.46610
N232        N  0.02074736  0.09728357  0.09324847    -0.46830
C233        C  0.04519376  0.40246493  0.09344439     0.42480
N234        N  0.46421958  0.45659184  0.10746087     0.01350
N235        N  0.08160311  0.00467025  0.96917677    -0.25530
N236        N  0.46106344  0.39175366  0.98438037    -0.26020
N237        N  0.08405863  0.04568471  0.96887242     0.00990
H238        H  0.11523951  0.97582208  0.93745274     0.06880
H239        H  0.09549673  0.12854245  0.02407504     0.06920
N240        N  0.46624688  0.99728312  0.10537037    -0.26070
N241        N  0.49930815  0.07031152  0.94671078    -0.25680
N242        N  0.03326303  0.42328803  0.02972553     0.01360
C243        C  0.37087989  0.43348603  0.07579913     0.42750
C244        C  0.53557279  0.47003635  0.85722563    -0.06930
N245        N  0.04249633  0.08965522  0.02195170    -0.25680
H246        H  0.51222360  0.09479066  0.87443553     0.06900
N247        N  0.38908507  0.40923701  0.06166209    -0.46900
H248        H  0.53193813  0.43731450  0.84709167     0.06890
C249        C  0.13344869  0.05055781  0.93323529     0.42590
C250        C  0.43439631  0.36528371  0.96474838    -0.06430
Co251      Co  0.03565110  0.45234240  0.96368984     0.73820
N252        N  0.54069767  0.04026782  0.85726993    -0.46620
C253        C  0.96583304  0.97579751  0.17772338     0.42850
N254        N  0.05870813  0.42047386  0.04904949    -0.46610
Co255      Co  0.04184680  0.05875923  0.95955208     0.73890
C256        C  0.06918901  0.11661695  0.04098539    -0.06940
C257        C  0.39283673  0.47830561  0.05702771    -0.06500
N258        N  0.00437409  0.40997898  0.05950367    -0.26030
N259        N  0.44521931  0.06089979  0.95866748    -0.46790
H260        H  0.96916902  0.04442496  0.15749838     0.06860
C261        C  0.11193211  0.00484535  0.94985636    -0.06910
Cl262      Cl  0.00197485  0.99045763  0.00330372    -0.49910
C263        C  0.53741729  0.50746680  0.82865515     0.42620
H264        H  0.99064879  0.38447162  0.13162160     0.06830
N265        N  0.11460664  0.07352594  0.94859968    -0.46630
C266        C  0.44460453  0.37508386  0.42604688     0.42470
N267        N  0.48364869  0.41810857  0.46333700     0.01360
C268        C  0.96212574  0.03358843  0.65291747    -0.06520
H269        H  0.38254672  0.52413808  0.57605159     0.06850
C270        C  0.48617885  0.09748457  0.40732393    -0.06870
Co271      Co  0.45467585  0.44127174  0.55404864     0.74180
N272        N  0.41504832  0.49468067  0.54234977    -0.26050
Co273      Co  0.46102538  0.04760685  0.54621224     0.74070
C274        C  0.45023408  0.09069590  0.41443718     0.42570
N275        N  0.03334583  0.03849063  0.40480628     0.00970
N276        N  0.46317760  0.07359846  0.47898285     0.01080
N277        N  0.95605031  0.46298203  0.65564774    -0.46900
H278        H  0.40224940  0.37095200  0.48764048     0.06840
N279        N  0.41262706  0.45368042  0.54322814     0.01360
N280        N  0.00712882  0.09933324  0.55480020     0.01100
C281        C  0.04766376  0.14355809  0.58938095     0.42710
N282        N  0.03211445  0.49833402  0.40935854    -0.25510
C283        C  0.99985783  0.41485230  0.61025512    -0.06430
N284        N  0.47848285  0.39902888  0.42326493    -0.46610
N285        N  0.01367289  0.11896005  0.59438106    -0.46830
C286        C  0.03549676  0.42060548  0.60536379     0.42480
N287        N  0.45558718  0.47669998  0.61308671     0.01350
N288        N  0.07459557  0.02264193  0.47870736    -0.25530
N289        N  0.45494173  0.40879213  0.49261093    -0.26020
N290        N  0.07686059  0.06345537  0.47427142     0.00990
H291        H  0.10842391  0.99211230  0.45270365     0.06880
H292        H  0.08793994  0.14807575  0.52466999     0.06920
N293        N  0.45933161  0.01806974  0.61031285    -0.26070
N294        N  0.49167978  0.08534461  0.44862653    -0.25680
N295        N  0.02565035  0.44218176  0.54059569     0.01360
C296        C  0.36407727  0.44938447  0.58146146     0.42750
C297        C  0.53273843  0.48206275  0.36731711    -0.06930
N298        N  0.03497565  0.10902978  0.52369436    -0.25680
H299        H  0.50430572  0.10612411  0.37519491     0.06900
N300        N  0.38252849  0.42620098  0.56523681    -0.46900
H301        H  0.53135770  0.44947888  0.36007028     0.06890
C302        C  0.12606619  0.06641467  0.43994723     0.42590
C303        C  0.42887304  0.38150714  0.47261709    -0.06430
Co304      Co  0.02925649  0.46941425  0.47372308     0.73820
N305        N  0.53373768  0.05040277  0.36102324    -0.46620
C306        C  0.96013172  0.99691267  0.68284065     0.42850
N307        N  0.05010720  0.43807830  0.56108079    -0.46610
Co308      Co  0.03434726  0.07527354  0.46296756     0.73890
C309        C  0.06174752  0.13711496  0.54176170    -0.06940
C310        C  0.38515230  0.49479410  0.56330350    -0.06500
N311        N  0.99636014  0.42977102  0.56919210    -0.26030
N312        N  0.43745039  0.07527711  0.45966407    -0.46790
H313        H  0.96645996  0.06684841  0.66158739     0.06860
C314        C  0.10493714  0.02198925  0.46087375    -0.06910
Cl315      Cl  0.49485177  0.00845149  0.50927468    -0.49910
C316        C  0.53375127  0.51646371  0.33543811     0.42620
H317        H  0.98030274  0.40470502  0.64078513     0.06830
N318        N  0.10722788  0.09012998  0.45221774    -0.46630
C319        C  0.98032982  0.00225258  0.72003088    -0.05460
C320        C  0.46455559  0.99715216  0.76655505    -0.32890
C321        C  0.48300126  0.49738037  0.80237597     0.36360
C322        C  0.51746923  0.50292053  0.79128210    -0.05810
C323        C  0.03323827  0.00789117  0.74474136    -0.32780
C324        C  0.01478704  0.00772219  0.70890544     0.36270
H325        H  0.43792163  0.99232839  0.77499018     0.16640
O326        O  0.46738684  0.49273875  0.84814476    -0.60280
H327        H  0.05980814  0.01240752  0.73631504     0.16660
O328        O  0.03028236  0.01198572  0.66311612    -0.60380
H329        H  0.03905926  0.04378290  0.65386140     0.43650
H330        H  0.45916742  0.46100963  0.85738124     0.43610
C331        C  0.51654251  0.50602996  0.29508893    -0.05460
C332        C  0.03574362  0.01577413  0.25028862    -0.32890
C333        C  0.01917348  0.00457921  0.21141121     0.36360
C334        C  0.98328021  0.98350944  0.21789000    -0.05810
C335        C  0.46413947  0.47312044  0.26271592    -0.32780
C336        C  0.48067968  0.48443917  0.30156406     0.36270
H337        H  0.06338830  0.03191500  0.24555762     0.16640
O338        O  0.03806069  0.01394018  0.16726770    -0.60280
H339        H  0.43649510  0.45698324  0.26747220     0.16660
O340        O  0.46178926  0.47404106  0.34570833    -0.60380
H341        H  0.45678598  0.50014993  0.35386436     0.43650
H342        H  0.04242565  0.04493078  0.15911128     0.43610
C343        C  0.08924572  0.41936641  0.72070928    -0.05460
C344        C  0.05399476  0.39463156  0.72452216    -0.32890
C345        C  0.03644894  0.39407956  0.68715434     0.36360
C346        C  0.05403828  0.41875845  0.64453803    -0.05810
C347        C  0.08934463  0.44370502  0.64066987    -0.32780
C348        C  0.10694025  0.44420463  0.67821547     0.36270
H349        H  0.03979375  0.37466227  0.75627421     0.16640
O350        O  0.00231147  0.36758310  0.69216835    -0.60280
H351        H  0.10337060  0.46339804  0.60864353     0.16660
O352        O  0.14130924  0.46970879  0.67323145    -0.60380
H353        H  0.15255091  0.45378391  0.65267115     0.43650
H354        H  0.99074476  0.38170732  0.71483675     0.43610
C355        C  0.06614684  0.16139701  0.62990342    -0.05460
C356        C  0.04731671  0.15852241  0.67497023    -0.32890
C357        C  0.06368131  0.17260559  0.71443947     0.36360
C358        C  0.09969259  0.19009457  0.70964613    -0.05810
C359        C  0.11833891  0.19266307  0.66470931    -0.32780
C360        C  0.10217437  0.17925539  0.62531900     0.36270
H361        H  0.01963892  0.14504380  0.67984403     0.16640
O362        O  0.04413466  0.16981311  0.75720476    -0.60280
H363        H  0.14594823  0.20536819  0.65939717     0.16660
O364        O  0.12222538  0.18316755  0.58277849    -0.60380
H365        H  0.13275815  0.21505431  0.57356258     0.43650
H366        H  0.03880204  0.14003683  0.77111972     0.43610
C367        C  0.31239077  0.42712221  0.72610818    -0.05460
C368        C  0.32644719  0.39797619  0.70650412    -0.32890
C369        C  0.34164924  0.40318138  0.65919999     0.36360
C370        C  0.34375324  0.43874915  0.62986848    -0.05810
C371        C  0.32986996  0.46779406  0.64941073    -0.32780
C372        C  0.31421171  0.46226954  0.69634691     0.36270
H373        H  0.32494116  0.37009244  0.72773673     0.16640
O374        O  0.35409776  0.37291959  0.64222217    -0.60280
H375        H  0.33103798  0.49516637  0.62805797     0.16660
O376        O  0.30005228  0.49110620  0.71173421    -0.60380
H377        H  0.27659540  0.47855659  0.70376529     0.43650
H378        H  0.37668565  0.38162081  0.65263459     0.43610
C379        C  0.14552104  0.31228776  0.55437123    -0.05460
C380        C  0.12767403  0.32082200  0.59479299    -0.32890
C381        C  0.14455541  0.33810323  0.63237180     0.36360
C382        C  0.17966941  0.34745107  0.62895977    -0.05810
C383        C  0.19747850  0.33880351  0.58857929    -0.32780
C384        C  0.18063037  0.32165243  0.55100383     0.36270
H385        H  0.10073364  0.31417503  0.59711834     0.16640
O386        O  0.12630005  0.34364396  0.67307975    -0.60280
H387        H  0.22441759  0.34544167  0.58621829     0.16660
O388        O  0.19897318  0.31624478  0.51035563    -0.60380
H389        H  0.19763197  0.28591490  0.51395825     0.43650
H390        H  0.12236997  0.37041005  0.66645134     0.43610
C391        C  0.18052928  0.34051786  0.12718359    -0.05460
C392        C  0.15562427  0.29794260  0.12574505    -0.32890
C393        C  0.13453216  0.28848142  0.09162404     0.36360
C394        C  0.13848730  0.32171075  0.05848182    -0.05810
C395        C  0.16291450  0.36446502  0.06048441    -0.32780
C396        C  0.18387585  0.37402282  0.09473755     0.36270
H397        H  0.15190461  0.27212950  0.15165824     0.16640
O398        O  0.10967246  0.24708157  0.09142294    -0.60280
H399        H  0.16677569  0.39022987  0.03445725     0.16660
O400        O  0.20836249  0.41566608  0.09524641    -0.60380
H401        H  0.19565078  0.43383121  0.10706862     0.43650
H402        H  0.12195178  0.22890191  0.07819678     0.43610
C403        C  0.06423455  0.40160250  0.13252930    -0.05460
C404        C  0.04790507  0.36959635  0.16984891    -0.32890
C405        C  0.06309034  0.36991519  0.20986031     0.36360
C406        C  0.09558238  0.40264144  0.21338097    -0.05810
C407        C  0.11228304  0.43418069  0.17554479    -0.32780
C408        C  0.09664721  0.43431223  0.13589983     0.36270
H409        H  0.02294522  0.34412346  0.16817792     0.16640
O410        O  0.04641068  0.33686158  0.24430015    -0.60280
H411        H  0.13721925  0.45967502  0.17726402     0.16660
O412        O  0.11253914  0.46779730  0.10181802    -0.60380
H413        H  0.10685200  0.49250643  0.11374061     0.43650
H414        H  0.02814521  0.34455262  0.26190841     0.43610
C415        C  0.10469530  0.17039670  0.20936278    -0.05460
C416        C  0.12331390  0.16390580  0.16800996    -0.32890
C417        C  0.10775051  0.14806346  0.12863666     0.36360
C418        C  0.07264536  0.13846392  0.12973801    -0.05810
C419        C  0.05371071  0.14334334  0.17182345    -0.32780
C420        C  0.06934324  0.15877161  0.21139394     0.36270
H421        H  0.15031274  0.17122431  0.16594946     0.16640
O422        O  0.12701712  0.14069537  0.09008513    -0.60280
H423        H  0.02659315  0.13542036  0.17405882     0.16660
O424        O  0.04997689  0.16379103  0.25118955    -0.60380
H425        H  0.04313010  0.13624113  0.27089892     0.43650
H426        H  0.14223872  0.17018319  0.07529076     0.43610
C427        C  0.31716856  0.41114836  0.21917061    -0.05460
C428        C  0.31791776  0.44540626  0.18945550    -0.32890
C429        C  0.33353131  0.45172297  0.14217568     0.36360
C430        C  0.34936243  0.42392590  0.12339651    -0.05810
C431        C  0.34819495  0.38937306  0.15296391    -0.32780
C432        C  0.33233981  0.38288261  0.19992889     0.36270
H433        H  0.30556212  0.46694445  0.20204045     0.16640
O434        O  0.33192716  0.48412565  0.11420219    -0.60280
H435        H  0.36012125  0.36738173  0.14003794     0.16660
O436        O  0.33178483  0.34849233  0.22682843    -0.60380
H437        H  0.31289550  0.32230556  0.21815815     0.43650
H438        H  0.34548258  0.51221784  0.12707646     0.43610
C439        C  0.39774549  0.07517027  0.80388774    -0.05460
C440        C  0.38229171  0.06564374  0.85131852    -0.32890
C441        C  0.40136822  0.06658858  0.88723755     0.36360
C442        C  0.43682594  0.07738145  0.87653128    -0.05810
C443        C  0.45223708  0.08672937  0.82910113    -0.32780
C444        C  0.43319152  0.08577018  0.79318885     0.36270
H445        H  0.35521470  0.05753223  0.86108502     0.16640
O446        O  0.38503517  0.05757762  0.93279040    -0.60280
H447        H  0.47926273  0.09464781  0.81927469     0.16660
O448        O  0.44959467  0.09474498  0.74767171    -0.60380
H449        H  0.46011282  0.12724435  0.74316294     0.43650
H450        H  0.37510147  0.02508971  0.93751007     0.43610
C451        C  0.15383123  0.06309218  0.88527713    -0.05460
C452        C  0.14650901  0.03297586  0.84997843    -0.32890
C453        C  0.16069965  0.04626516  0.80290700     0.36360
C454        C  0.18256851  0.09018234  0.78960778    -0.05810
C455        C  0.19006687  0.12038327  0.82482317    -0.32780
C456        C  0.17591472  0.10713689  0.87210995     0.36270
H457        H  0.12886186  0.99916440  0.85825967     0.16640
O458        O  0.15303814  0.01590165  0.76981510    -0.60280
H459        H  0.20778580  0.15412116  0.81619080     0.16660
O460        O  0.18344031  0.13770631  0.90520488    -0.60380
H461        H  0.20487347  0.13840590  0.91471664     0.43650
H462        H  0.17222866  0.00615733  0.76578108     0.43610
C463        C  0.40169265  0.31024482  0.79589420    -0.05460
C464        C  0.38658197  0.33018787  0.82978032    -0.32890
C465        C  0.40148772  0.34627188  0.86968552     0.36360
C466        C  0.43179014  0.34191892  0.87676188    -0.05810
C467        C  0.44662831  0.32140584  0.84326859    -0.32780
C468        C  0.43171635  0.30526903  0.80334049     0.36270
H469        H  0.36330437  0.33386840  0.82496616     0.16640
O470        O  0.38658389  0.36703663  0.90090011    -0.60280
H471        H  0.46967308  0.31726003  0.84843749     0.16660
O472        O  0.44531594  0.28203781  0.77363063    -0.60380
H473        H  0.46785981  0.30364698  0.75827425     0.43650
H474        H  0.39749987  0.39850958  0.88980738     0.43610
C475        C  0.26368441  0.00617753  0.54981302    -0.05460
C476        C  0.23026756  0.47418166  0.55968321    -0.32890
C477        C  0.21151643  0.45554756  0.52363663     0.36360
C478        C  0.22592062  0.46910616  0.47589886    -0.05810
C479        C  0.25976562  0.00030820  0.46604714    -0.32780
C480        C  0.27864405  0.01850143  0.50225230     0.36270
H481        H  0.21848125  0.46315328  0.59571803     0.16640
O482        O  0.17966327  0.42280679  0.53592216    -0.60280
H483        H  0.27164006  0.01110486  0.43000968     0.16660
O484        O  0.31125632  0.04959030  0.49050785    -0.60380
H485        H  0.32580791  0.03278818  0.48308941     0.43650
H486        H  0.16479007  0.43767762  0.54960855     0.43610
C487        C  0.48432843  0.22155277  0.55564301    -0.05460
C488        C  0.00971271  0.26312500  0.54095843    -0.32890
C489        C  0.02516345  0.27354364  0.49389112     0.36360
C490        C  0.01566637  0.24179159  0.46002455    -0.05810
C491        C  0.49041130  0.20019683  0.47464470    -0.32780
C492        C  0.47440563  0.19006734  0.52153798     0.36270
H493        H  0.01710218  0.28814418  0.56602094     0.16640
O494        O  0.05017819  0.31467403  0.48187729    -0.60280
H495        H  0.48258263  0.17565894  0.44929479     0.16660
O496        O  0.44749287  0.15035486  0.53253582    -0.60380
H497        H  0.45795684  0.12975534  0.53971036     0.43650
H498        H  0.03781507  0.33367649  0.47703030     0.43610
C499        C  0.27136052  0.24496034  0.53764004    -0.05460
C500        C  0.28947470  0.26775430  0.49484931    -0.32890
C501        C  0.27312971  0.26736559  0.45632963     0.36360
C502        C  0.23750011  0.24343728  0.45962261    -0.05810
C503        C  0.21921711  0.22021736  0.50253124    -0.32780
C504        C  0.23576120  0.22102354  0.54134010     0.36270
H505        H  0.31668090  0.28661095  0.49119445     0.16640
O506        O  0.29264120  0.29041497  0.41571698    -0.60280
H507        H  0.19183947  0.20168093  0.50625582     0.16660
O508        O  0.21683615  0.19824942  0.58248162    -0.60380
H509        H  0.21603075  0.16807402  0.57957409     0.43650
H510        H  0.29468951  0.32103064  0.41951300     0.43610
C511        C  0.30824915  0.16316229  0.88805179    -0.05460
C512        C  0.33448084  0.20443552  0.89129368    -0.32890
C513        C  0.35224724  0.21215932  0.92902858     0.36360
C514        C  0.34400072  0.17832181  0.96344723    -0.05810
C515        C  0.31672123  0.13779976  0.96133335    -0.32780
C516        C  0.29900720  0.13000687  0.92355325     0.36270
H517        H  0.34226862  0.23024263  0.86375332     0.16640
O518        O  0.37863532  0.25198476  0.93090560    -0.60280
H519        H  0.30890405  0.11224092  0.98910383     0.16660
O520        O  0.27253268  0.09024707  0.92175546    -0.60380
H521        H  0.28322252  0.07157220  0.90525717     0.43650
H522        H  0.36771500  0.27118663  0.94555637     0.43610
C523        C  0.31181177  0.15700915  0.38854172    -0.05460
C524        C  0.34460134  0.15656568  0.37894094    -0.32890
C525        C  0.36377822  0.16072327  0.41481601     0.36360
C526        C  0.35004187  0.16559054  0.46034276    -0.05810
C527        C  0.31701669  0.16526553  0.47010430    -0.32780
C528        C  0.29776435  0.16092523  0.43428204     0.36270
H529        H  0.35542333  0.15354181  0.34345853     0.16640
O530        O  0.39633214  0.16214668  0.40469969    -0.60280
H531        H  0.30625061  0.16839730  0.50558112     0.16660
O532        O  0.26495208  0.15862135  0.44464715    -0.60380
H533        H  0.26469819  0.18400807  0.42683690     0.43650
H534        H  0.39593154  0.13631709  0.42247997     0.43610
C535        C  0.42971014  0.08926952  0.37674901    -0.05460
C536        C  0.39591343  0.05817321  0.38050367    -0.32890
C537        C  0.37665801  0.05501402  0.34425571     0.36360
C538        C  0.39122775  0.08293890  0.30298130    -0.05810
C539        C  0.42496105  0.11418322  0.29942690    -0.32780
C540        C  0.44404056  0.11767121  0.33589130     0.36270
H541        H  0.38444570  0.03581997  0.41142647     0.16640
O542        O  0.34405910  0.02333938  0.34881709    -0.60280
H543        H  0.43639731  0.13684143  0.26873522     0.16660
O544        O  0.47607156  0.15050760  0.33228478    -0.60380
H545        H  0.49062591  0.14141026  0.30847650     0.43650
H546        H  0.33019803  0.03357394  0.37260942     0.43610
C547        C  0.17808615  0.10319756  0.29675469    -0.05460
C548        C  0.15782914  0.05895617  0.31064669    -0.32890
C549        C  0.14243440  0.04547865  0.35748652     0.36360
C550        C  0.14717489  0.07660508  0.39223925    -0.05810
C551        C  0.16800041  0.12063809  0.37853096    -0.32780
C552        C  0.18350985  0.13399114  0.33185347     0.36270
H553        H  0.15412211  0.03436047  0.28495940     0.16640
O554        O  0.12270012  0.00178294  0.36832887    -0.60280
H555        H  0.17194407  0.14517935  0.40427884     0.16660
O556        O  0.20493735  0.17708779  0.32185639    -0.60380
H557        H  0.18980560  0.19166787  0.31509034     0.43650
H558        H  0.10145948  0.99592249  0.35510796     0.43610
C559        C  0.39773715  0.32333074  0.30356482    -0.05460
C560        C  0.37805858  0.31408939  0.34861064    -0.32890
C561        C  0.39272970  0.33035254  0.38854969     0.36360
C562        C  0.42798907  0.35639012  0.38453058    -0.05810
C563        C  0.44775919  0.36580620  0.33945155    -0.32780
C564        C  0.43302963  0.34972289  0.29932371     0.36270
H565        H  0.35095160  0.29373676  0.35322832     0.16640
O566        O  0.37225344  0.31963908  0.43138588    -0.60280
H567        H  0.47485393  0.38624503  0.33499071     0.16660
O568        O  0.45332524  0.36117312  0.25624923    -0.60380
H569        H  0.46620603  0.34196323  0.25379423     0.43650
H570        H  0.36086694  0.34057819  0.43383577     0.43610
C571        C  0.25769808  0.02297591  0.04893558    -0.05460
C572        C  0.22319781  0.01635599  0.05181194    -0.32890
C573        C  0.20510521  0.49963213  0.01475090     0.36360
C574        C  0.22125068  0.48903812  0.97332157    -0.05810
C575        C  0.25600286  0.99645689  0.96989424    -0.32780
C576        C  0.27425108  0.01352742  0.00704985     0.36270
H577        H  0.20991874  0.02421915  0.08293212     0.16640
O578        O  0.17164088  0.49449194  0.01929202    -0.60280
H579        H  0.26899786  0.48833792  0.93862331     0.16660
O580        O  0.30789047  0.01924773  0.00270525    -0.60380
H581        H  0.32067149  0.04593377  0.98140575     0.43650
H582        H  0.15884139  0.46702859  0.03937486     0.43610
C583        C  0.48014144  0.23936418  0.05927742    -0.05460
C584        C  0.47573855  0.26800023  0.02720205    -0.32890
C585        C  0.49013136  0.27250377  0.97981055     0.36360
C586        C  0.00943028  0.24831545  0.96284272    -0.05810
C587        C  0.01414169  0.21990021  0.99503233    -0.32780
C588        C  0.99992953  0.21560275  0.04269317     0.36270
H589        H  0.46039826  0.28649159  0.03844307     0.16640
O590        O  0.48541252  0.30115595  0.95024317    -0.60280
H591        H  0.02979989  0.20185223  0.98401094     0.16660
O592        O  0.00550895  0.18794652  0.07273118    -0.60380
H593        H  0.02720406  0.20610010  0.08381484     0.43650
H594        H  0.50398569  0.32990898  0.95351694     0.43610
C595        C  0.23127261  0.25817742  0.96937609    -0.05460
C596        C  0.21524772  0.25657486  0.01600277    -0.32890
C597        C  0.23244360  0.25756203  0.05437906     0.36360
C598        C  0.26636499  0.26031756  0.04674420    -0.05810
C599        C  0.28196133  0.26117284  0.00010599    -0.32780
C600        C  0.26494603  0.26025651  0.96193948     0.36270
H601        H  0.18941701  0.25519093  0.02282412     0.16640
O602        O  0.21619260  0.25715463  0.09898309    -0.60280
H603        H  0.30751277  0.26188703  0.99259183     0.16660
O604        O  0.28107573  0.25938066  0.91757387    -0.60380
H605        H  0.29937795  0.28918917  0.91011158     0.43650
H606        H  0.20160201  0.22582252  0.10806778     0.43610
C607        C  0.36206384  0.68561588  0.00332925     0.42470
N608        N  0.36656765  0.70622341  0.07277848     0.01360
C609        C  0.33500190  0.57531519  0.27197614    -0.06520
H610        H  0.23458400  0.53430015  0.15256657     0.06850
C611        C  0.21909364  0.65912625  0.22834934    -0.06870
Co612      Co  0.36203847  0.63354734  0.13692388     0.74180
N613        N  0.28762939  0.57298547  0.15608359    -0.26050
Co614      Co  0.28816922  0.60326875  0.21896454     0.74070
C615        C  0.19780189  0.61428808  0.24805431     0.42570
N616        N  0.29755712  0.74018920  0.15007116     0.00970
N617        N  0.24615158  0.61708750  0.21055528     0.01080
N618        N  0.38427710  0.60009423  0.22079613    -0.46900
H619        H  0.36017973  0.61766110  0.02328035     0.06840
N620        N  0.31591478  0.58316830  0.12565057     0.01360
N621        N  0.28952296  0.63634095  0.27923480     0.01100
C622        C  0.29286399  0.65305474  0.35008842     0.42710
N623        N  0.32646733  0.75311208  0.12046401    -0.25510
C624        C  0.43787688  0.68479683  0.12468184    -0.06430
N625        N  0.36479474  0.71944332  0.03049104    -0.46610
N626        N  0.28977972  0.62072556  0.32100334    -0.46830
C627        C  0.45979053  0.73001199  0.10737568     0.42480
N628        N  0.35899802  0.60366799  0.20199483     0.01350
N629        N  0.36923353  0.77129558  0.19578305    -0.25530
N630        N  0.36456216  0.66555119  0.07476051    -0.26020
N631        N  0.34101235  0.76035966  0.22648639     0.00990
H632        H  0.42206955  0.81110957  0.19877211     0.06880
H633        H  0.29819452  0.72343273  0.33287773     0.06920
N634        N  0.33018416  0.59058896  0.23176987    -0.26070
N635        N  0.24905668  0.65827992  0.20910851    -0.25680
N636        N  0.41055603  0.72662123  0.14224963     0.01360
C637        C  0.27603150  0.54081058  0.08921484     0.42750
C638        C  0.32198081  0.76829018  0.08008990    -0.06930
N639        N  0.29262974  0.67750920  0.27860376    -0.25680
H640        H  0.21619679  0.68902516  0.23802143     0.06900
N641        N  0.30999572  0.56491349  0.08522157    -0.46900
H642        H  0.34109076  0.77949830  0.04900804     0.06890
C643        C  0.38058987  0.80390189  0.26269628     0.42590
C644        C  0.36284039  0.65036508  0.03224030    -0.06430
Co645      Co  0.36849310  0.74048000  0.13303169     0.73820
N646        N  0.27238704  0.74371686  0.13062758    -0.46620
C647        C  0.37093241  0.58195334  0.26505582     0.42850
N648        N  0.44127932  0.75377085  0.12171077    -0.46610
Co649      Co  0.29483715  0.71015255  0.21572033     0.73890
C650        C  0.29458685  0.69086535  0.32221453    -0.06940
C651        C  0.26114049  0.54610610  0.13659140    -0.06500
N652        N  0.40772373  0.68544537  0.14342952    -0.26030
N653        N  0.21586095  0.59029836  0.23275435    -0.46790
H654        H  0.31647282  0.56481264  0.30365543     0.06860
C655        C  0.39560453  0.79900180  0.21507812    -0.06910
Cl656      Cl  0.32838545  0.67194780  0.17617733    -0.49910
C657        C  0.28594944  0.76128010  0.08602871     0.42620
H658        H  0.44052656  0.65541527  0.11214615     0.06830
N659        N  0.34681045  0.77866851  0.26679607    -0.46630
C660        C  0.28194026  0.52692079  0.58935446     0.42470
N661        N  0.32147522  0.57078866  0.62515923     0.01360
C662        C  0.29457871  0.68771398  0.81280602    -0.06520
H663        H  0.22036147  0.67637777  0.73464196     0.06850
C664        C  0.32689992  0.75228932  0.57032013    -0.06870
Co665      Co  0.29373242  0.59402183  0.71738857     0.74180
N666        N  0.25377242  0.64706473  0.70294509    -0.26050
Co667      Co  0.29933386  0.70003184  0.70730586     0.74070
C668        C  0.29082029  0.74502379  0.57626463     0.42570
N669        N  0.37292163  0.69240746  0.56806324     0.00970
N670        N  0.30263869  0.72662438  0.64084334     0.01080
N671        N  0.29352751  0.61928362  0.82015808    -0.46900
H672        H  0.24027345  0.52100165  0.65214622     0.06840
N673        N  0.25166042  0.60620898  0.70527764     0.01360
N674        N  0.34527394  0.75122752  0.71736461     0.01100
C675        C  0.38477802  0.79300149  0.75455470     0.42710
N676        N  0.37018399  0.65148261  0.57102835    -0.25510
C677        C  0.34122216  0.57058559  0.77397157    -0.06430
N678        N  0.31570844  0.55192281  0.58502889    -0.46610
N679        N  0.35075478  0.77014272  0.75751078    -0.46830
C680        C  0.37690466  0.57556824  0.76670304     0.42480
N681        N  0.29462933  0.63099468  0.77601502     0.01350
N682        N  0.41269733  0.67326734  0.64212390    -0.25530
N683        N  0.29327641  0.56069785  0.65575484    -0.26020
N684        N  0.41592698  0.71442764  0.63725678     0.00990
H685        H  0.44564920  0.64084110  0.61883971     0.06880
H686        H  0.42698782  0.79695787  0.69342675     0.06920
N687        N  0.29610790  0.67124183  0.77111334    -0.26070
N688        N  0.33164918  0.73898684  0.61153336    -0.25680
N689        N  0.36420731  0.59356342  0.70214238     0.01360
C690        C  0.20258807  0.60188674  0.74140929     0.42750
C691        C  0.36878206  0.63628941  0.52819392    -0.06930
N692        N  0.37391446  0.76002509  0.68801118    -0.25680
H693        H  0.34562989  0.76203854  0.53879171     0.06900
N694        N  0.22140623  0.57877410  0.72668574    -0.46900
H695        H  0.36603154  0.60355727  0.51940976     0.06890
C696        C  0.46457582  0.71483766  0.60392347     0.42590
C697        C  0.26691632  0.53269358  0.63658107    -0.06430
Co698      Co  0.36729231  0.62121735  0.63551883     0.73820
N699        N  0.37265908  0.70598891  0.52536822    -0.46620
C700        C  0.29364343  0.65377877  0.84512381     0.42850
N701        N  0.38946755  0.59013755  0.72117472    -0.46610
Co702      Co  0.37388265  0.72771699  0.62651271     0.73890
C703        C  0.40026436  0.78643057  0.70814607    -0.06940
C704        C  0.22361024  0.64710780  0.72292976    -0.06500
N705        N  0.33594303  0.58312816  0.73262744    -0.26030
N706        N  0.27733624  0.72891143  0.62102812    -0.46790
H707        H  0.29535057  0.72016351  0.81939665     0.06860
C708        C  0.44278459  0.67126408  0.62608355    -0.06910
Cl709      Cl  0.33356092  0.66068599  0.67172135    -0.49910
C710        C  0.36989281  0.67238125  0.49817016     0.42620
H711        H  0.32292311  0.56200460  0.80593655     0.06830
N712        N  0.44660454  0.73990045  0.61492231    -0.46630
C713        C  0.21873387  0.74397695  0.42014978     0.42470
N714        N  0.17805912  0.74760283  0.38665667     0.01360
C715        C  0.19994777  0.88585882  0.19650968    -0.06520
H716        H  0.27759714  0.95637999  0.27601998     0.06850
C717        C  0.17031904  0.92230986  0.44025150    -0.06870
Co718      Co  0.20495604  0.79845024  0.29435598     0.74180
N719        N  0.24489145  0.89260095  0.30690920    -0.26050
Co720      Co  0.19901113  0.89857062  0.30268668     0.74070
C721        C  0.20648811  0.95077783  0.43633560     0.42570
N722        N  0.12579956  0.81663893  0.44351626     0.00970
N723        N  0.19575802  0.92218880  0.37003460     0.01080
N724        N  0.20178543  0.81880412  0.19294741    -0.46900
H725        H  0.25870705  0.77983491  0.35489407     0.06840
N726        N  0.24732980  0.85412215  0.30420661     0.01360
N727        N  0.15286683  0.90276552  0.29233289     0.01100
C728        C  0.11293913  0.90362701  0.25499500     0.42710
N729        N  0.12929954  0.77893617  0.44093306    -0.25510
C730        C  0.15880690  0.72406848  0.24075244    -0.06430
N731        N  0.18472423  0.73402483  0.42585974    -0.46610
N732        N  0.14703323  0.91544898  0.25196461    -0.46830
C733        C  0.12345089  0.69251829  0.24775745     0.42480
N734        N  0.20316690  0.83259298  0.23564378     0.01350
N735        N  0.08538346  0.75649107  0.37305613    -0.25530
N736        N  0.20587030  0.76665252  0.35553280    -0.26020
N737        N  0.08290830  0.79502454  0.37281599     0.00990
H738        H  0.05251228  0.69443754  0.40840041     0.06880
H739        H  0.07133014  0.86586879  0.31756767     0.06920
N740        N  0.20137998  0.87128289  0.23882308    -0.26070
N741        N  0.16643952  0.90495083  0.39866712    -0.25680
N742        N  0.13436772  0.72607705  0.31107834     0.01360
C743        C  0.29599731  0.90042632  0.26707733     0.42750
C744        C  0.13103239  0.76531171  0.48363537    -0.06930
N745        N  0.12440311  0.88275235  0.32205691    -0.25680
H746        H  0.15039225  0.91327349  0.47028579     0.06900
N747        N  0.27743679  0.85793787  0.28160286    -0.46900
H748        H  0.13465751  0.73590460  0.49227672     0.06890
C749        C  0.03426997  0.75030431  0.41095840     0.42590
C750        C  0.23268601  0.76532193  0.37287124    -0.06430
Co751      Co  0.13156838  0.75102174  0.37754954     0.73820
N752        N  0.12557107  0.83023952  0.48636294    -0.46620
C753        C  0.19945380  0.85059079  0.16636546     0.42850
N754        N  0.10965278  0.69574174  0.29225230    -0.46610
Co755      Co  0.12465982  0.85071697  0.38383580     0.73890
C756        C  0.09790268  0.88219055  0.30209320    -0.06940
C757        C  0.27481986  0.92374690  0.28674170    -0.06500
N758        N  0.16299234  0.74381939  0.28104285    -0.26030
N759        N  0.22064102  0.94938178  0.39134261    -0.46790
H760        H  0.19714610  0.91600571  0.18866724     0.06860
C761        C  0.05539265  0.72618394  0.39429525    -0.06910
Cl762      Cl  0.16504898  0.82464014  0.33959716    -0.49910
C763        C  0.12870573  0.79958588  0.51360782     0.42620
H764        H  0.17758723  0.73301302  0.20924642     0.06830
N765        N  0.05260099  0.79199397  0.39370410    -0.46630
C766        C  0.21304992  0.75864605  0.92908593     0.42470
N767        N  0.17310105  0.76020692  0.89239128     0.01360
C768        C  0.19442638  0.89488171  0.69929053    -0.06520
H769        H  0.27155541  0.97002817  0.78792547     0.06850
C770        C  0.16576982  0.93682713  0.94197121    -0.06870
Co771      Co  0.20089537  0.81026788  0.79950460     0.74180
N772        N  0.23914850  0.90458292  0.81231837    -0.26050
Co773      Co  0.19323083  0.90959312  0.80572452     0.74070
C774        C  0.20147174  0.96776889  0.93532128     0.42570
N775        N  0.12061561  0.82916858  0.94700864     0.00970
N776        N  0.18998294  0.93509922  0.87156245     0.01080
N777        N  0.19974641  0.82986599  0.69701813    -0.46900
H778        H  0.25446856  0.79568429  0.86602164     0.06840
N779        N  0.24258345  0.86676657  0.80915167     0.01360
N780        N  0.14698410  0.91250402  0.79512453     0.01100
C781        C  0.10733531  0.91678946  0.76006971     0.42710
N782        N  0.12338340  0.79101692  0.94462811    -0.25510
C783        C  0.15483687  0.73730559  0.74445441    -0.06430
N784        N  0.17906901  0.74816714  0.93297754    -0.46610
N785        N  0.14103476  0.92554284  0.75515698    -0.46830
C786        C  0.11876276  0.70807037  0.74953870     0.42480
N787        N  0.19947102  0.84366171  0.73977243     0.01350
N788        N  0.08085271  0.76808696  0.87529320    -0.25530
N789        N  0.20139828  0.77915230  0.86199257    -0.26020
N790        N  0.07766164  0.80616039  0.87745821     0.00990
H791        H  0.04888345  0.70398237  0.90597135     0.06880
H792        H  0.06595718  0.88112622  0.82364301     0.06920
N793        N  0.19609158  0.88145965  0.74217728    -0.26070
N794        N  0.16122759  0.91771309  0.90133049    -0.25680
N795        N  0.13013252  0.73818183  0.81483787     0.01360
C796        C  0.29120429  0.91515150  0.77414601     0.42750
C797        C  0.12341955  0.77650176  0.98765973    -0.06930
N798        N  0.11883323  0.89414611  0.82582945    -0.25680
H799        H  0.14702340  0.92718496  0.97340207     0.06900
N800        N  0.27325722  0.87211915  0.78721947    -0.46900
H801        H  0.12615488  0.74649418  0.99640093     0.06890
C802        C  0.02940220  0.75879732  0.91437137     0.42590
C803        C  0.22792200  0.77933281  0.88162802    -0.06430
Co804      Co  0.12675208  0.76312971  0.88124908     0.73820
N805        N  0.11960120  0.84247127  0.98992139    -0.46620
C806        C  0.19661902  0.86039096  0.66958448     0.42850
N807        N  0.10498814  0.71041789  0.79436941    -0.46610
Co808      Co  0.11941874  0.86268278  0.88757936     0.73890
C809        C  0.09244196  0.89567515  0.80723856    -0.06940
C810        C  0.26910273  0.93691357  0.79500415    -0.06500
N811        N  0.15919229  0.75533894  0.78565757    -0.26030
N812        N  0.21500539  0.96452092  0.89073554    -0.46790
H813        H  0.19093374  0.92428718  0.69018565     0.06860
C814        C  0.05116339  0.73633085  0.89494831    -0.06910
Cl815      Cl  0.16007420  0.83644206  0.84353411    -0.49910
C816        C  0.12148329  0.81105161  0.01754467     0.42620
H817        H  0.17392195  0.74700365  0.71334838     0.06830
N818        N  0.04723110  0.80142783  0.89969207    -0.46630
C819        C  0.44925581  0.86025115  0.91729779     0.42470
N820        N  0.48926915  0.90203639  0.95364339     0.01360
C821        C  0.96682789  0.51188480  0.14827529    -0.06520
H822        H  0.39099911  0.00829274  0.06881266     0.06850
C823        C  0.49383878  0.58432907  0.90626691    -0.06870
Co824      Co  0.46205384  0.92227280  0.04738188     0.74180
N825        N  0.42253929  0.97693970  0.03733545    -0.26050
Co826      Co  0.46838799  0.52881205  0.04265891     0.74070
C827        C  0.45777635  0.57746355  0.91370727     0.42570
N828        N  0.04076291  0.52515855  0.89938983     0.00970
N829        N  0.47081743  0.55782680  0.97712628     0.01080
N830        N  0.96461900  0.94271913  0.15013913    -0.46900
H831        H  0.40781643  0.85355296  0.98061769     0.06840
N832        N  0.41951949  0.93572015  0.03938578     0.01360
N833        N  0.01447064  0.57927976  0.05286072     0.01100
C834        C  0.05474165  0.62130774  0.08891167     0.42710
N835        N  0.03757071  0.98398928  0.90059261    -0.25510
C836        C  0.00918893  0.89505043  0.09988244    -0.06430
N837        N  0.48318764  0.88415906  0.91313621    -0.46610
N838        N  0.02074736  0.59728357  0.09324847    -0.46830
C839        C  0.04519380  0.90246497  0.09344439     0.42480
N840        N  0.46421959  0.95659185  0.10746087     0.01350
N841        N  0.08160308  0.50467021  0.96917677    -0.25530
N842        N  0.46106348  0.89175368  0.98438035    -0.26020
N843        N  0.08405861  0.54568467  0.96887243     0.00990
H844        H  0.11523948  0.47582203  0.93745276     0.06880
H845        H  0.09549673  0.62854244  0.02407504     0.06920
N846        N  0.46624687  0.49728312  0.10537038    -0.26070
N847        N  0.49930814  0.57031151  0.94671079    -0.25680
N848        N  0.03326306  0.92328807  0.02972552     0.01360
C849        C  0.37087991  0.93348603  0.07579911     0.42750
C850        C  0.53557283  0.97003638  0.85722563    -0.06930
N851        N  0.04249632  0.58965520  0.02195171    -0.25680
H852        H  0.51222359  0.59479064  0.87443553     0.06900
N853        N  0.38908510  0.90923701  0.06166208    -0.46900
H854        H  0.53193818  0.93731454  0.84709167     0.06890
C855        C  0.13344868  0.55055776  0.93323531     0.42590
C856        C  0.43439635  0.86528374  0.96474836    -0.06430
Co857      Co  0.03565113  0.95234243  0.96368983     0.73820
N858        N  0.54069765  0.54026780  0.85726994    -0.46620
C859        C  0.96583305  0.47579751  0.17772339     0.42850
N860        N  0.05870816  0.92047390  0.04904948    -0.46610
Co861      Co  0.04184679  0.55875921  0.95955209     0.73890
C862        C  0.06918901  0.61661693  0.04098539    -0.06940
C863        C  0.39283674  0.97830560  0.05702770    -0.06500
N864        N  0.00437412  0.90997900  0.05950366    -0.26030
N865        N  0.44521930  0.56089979  0.95866748    -0.46790
H866        H  0.96916904  0.54442497  0.15749839     0.06860
C867        C  0.11193209  0.50484531  0.94985637    -0.06910
Cl868      Cl  0.00197483  0.49045761  0.00330373    -0.49910
C869        C  0.53741732  0.00746683  0.82865514     0.42620
H870        H  0.99064881  0.88447164  0.13162159     0.06830
N871        N  0.11460662  0.57352590  0.94859970    -0.46630
C872        C  0.44460453  0.87508388  0.42604685     0.42470
N873        N  0.48364869  0.91810858  0.46333697     0.01360
C874        C  0.96212573  0.53358844  0.65291746    -0.06520
H875        H  0.38254673  0.02413808  0.57605161     0.06850
C876        C  0.48617885  0.59748455  0.40732390    -0.06870
Co877      Co  0.45467586  0.94127174  0.55404863     0.74180
N878        N  0.41504832  0.99468067  0.54234978    -0.26050
Co879      Co  0.46102537  0.54760685  0.54621222     0.74070
C880        C  0.45023407  0.59069588  0.41443716     0.42570
N881        N  0.03334583  0.53849062  0.40480628     0.00970
N882        N  0.46317760  0.57359845  0.47898283     0.01080
N883        N  0.95605033  0.96298202  0.65564774    -0.46900
H884        H  0.40224940  0.87095200  0.48764046     0.06840
N885        N  0.41262706  0.95368042  0.54322814     0.01360
N886        N  0.00712882  0.59933324  0.55480019     0.01100
C887        C  0.04766375  0.64355810  0.58938094     0.42710
N888        N  0.03211445  0.99833404  0.40935853    -0.25510
C889        C  0.99985784  0.91485230  0.61025511    -0.06430
N890        N  0.47848285  0.89902890  0.42326490    -0.46610
N891        N  0.01367288  0.61896006  0.59438105    -0.46830
C892        C  0.03549677  0.92060549  0.60536378     0.42480
N893        N  0.45558719  0.97669996  0.61308671     0.01350
N894        N  0.07459557  0.52264193  0.47870738    -0.25530
N895        N  0.45494173  0.90879214  0.49261090    -0.26020
N896        N  0.07686059  0.56345537  0.47427143     0.00990
H897        H  0.10842391  0.49211230  0.45270368     0.06880
H898        H  0.08793993  0.64807576  0.52466998     0.06920
N899        N  0.45933161  0.51806975  0.61031284    -0.26070
N900        N  0.49167978  0.58534459  0.44862651    -0.25680
N901        N  0.02565035  0.94218177  0.54059567     0.01360
C902        C  0.36407728  0.94938447  0.58146148     0.42750
C903        C  0.53273842  0.98206278  0.36731709    -0.06930
N904        N  0.03497565  0.60902978  0.52369435    -0.25680
H905        H  0.50430572  0.60612408  0.37519488     0.06900
N906        N  0.38252849  0.92620098  0.56523681    -0.46900
H907        H  0.53135770  0.94947892  0.36007025     0.06890
C908        C  0.12606619  0.56641466  0.43994725     0.42590
C909        C  0.42887304  0.88150714  0.47261707    -0.06430
Co910      Co  0.02925649  0.96941425  0.47372306     0.73820
N911        N  0.53373768  0.55040274  0.36102324    -0.46620
C912        C  0.96013171  0.49691268  0.68284064     0.42850
N913        N  0.05010722  0.93807831  0.56108077    -0.46610
Co914      Co  0.03434726  0.57527354  0.46296756     0.73890
C915        C  0.06174752  0.63711496  0.54176170    -0.06940
C916        C  0.38515231  0.99479410  0.56330351    -0.06500
N917        N  0.99636015  0.92977102  0.56919209    -0.26030
N918        N  0.43745039  0.57527710  0.45966404    -0.46790
H919        H  0.96645995  0.56684843  0.66158738     0.06860
C920        C  0.10493714  0.52198925  0.46087377    -0.06910
Cl921      Cl  0.49485177  0.50845149  0.50927469    -0.49910
C922        C  0.53375126  0.01646375  0.33543809     0.42620
H923        H  0.98030275  0.90470503  0.64078511     0.06830
N924        N  0.10722788  0.59012997  0.45221775    -0.46630
C925        C  0.98032981  0.50225259  0.72003088    -0.05460
C926        C  0.46455558  0.49715219  0.76655505    -0.32890
C927        C  0.48300129  0.99738036  0.80237597     0.36360
C928        C  0.51746926  0.00292054  0.79128209    -0.05810
C929        C  0.03323824  0.50789112  0.74474137    -0.32780
C930        C  0.01478701  0.50772214  0.70890545     0.36270
H931        H  0.43792161  0.49232843  0.77499018     0.16640
O932        O  0.46738687  0.99273874  0.84814476    -0.60280
H933        H  0.05980810  0.51240742  0.73631506     0.16660
O934        O  0.03028233  0.51198564  0.66311613    -0.60380
H935        H  0.03905925  0.54378281  0.65386138     0.43650
H936        H  0.45916745  0.96100961  0.85738123     0.43610
C937        C  0.51654251  0.00603001  0.29508892    -0.05460
C938        C  0.03574362  0.51577416  0.25028863    -0.32890
C939        C  0.01917348  0.50457925  0.21141122     0.36360
C940        C  0.98328022  0.48350943  0.21789000    -0.05810
C941        C  0.46413945  0.97312055  0.26271592    -0.32780
C942        C  0.48067966  0.98443929  0.30156406     0.36270
H943        H  0.06338830  0.53191507  0.24555763     0.16640
O944        O  0.03806069  0.51394026  0.16726770    -0.60280
H945        H  0.43649508  0.95698340  0.26747221     0.16660
O946        O  0.46178924  0.97404127  0.34570833    -0.60380
H947        H  0.45678600  0.00015017  0.35386430     0.43650
H948        H  0.04242564  0.54493086  0.15911132     0.43610
C949        C  0.08924573  0.91936644  0.72070928    -0.05460
C950        C  0.05399477  0.89463158  0.72452215    -0.32890
C951        C  0.03644895  0.89407958  0.68715432     0.36360
C952        C  0.05403829  0.91875846  0.64453802    -0.05810
C953        C  0.08934464  0.94370504  0.64066986    -0.32780
C954        C  0.10694026  0.94420465  0.67821547     0.36270
H955        H  0.03979376  0.87466229  0.75627420     0.16640
O956        O  0.00231149  0.86758311  0.69216833    -0.60280
H957        H  0.10337062  0.96339806  0.60864352     0.16660
O958        O  0.14130925  0.96970882  0.67323145    -0.60380
H959        H  0.15255093  0.95378394  0.65267116     0.43650
H960        H  0.99074477  0.88170734  0.71483672     0.43610
C961        C  0.06614683  0.66139703  0.62990341    -0.05460
C962        C  0.04731669  0.65852244  0.67497022    -0.32890
C963        C  0.06368129  0.67260562  0.71443947     0.36360
C964        C  0.09969257  0.69009458  0.70964612    -0.05810
C965        C  0.11833890  0.69266308  0.66470931    -0.32780
C966        C  0.10217435  0.67925539  0.62531900     0.36270
H967        H  0.01963891  0.64504383  0.67984402     0.16640
O968        O  0.04413464  0.66981315  0.75720475    -0.60280
H969        H  0.14594822  0.70536819  0.65939717     0.16660
O970        O  0.12222537  0.68316755  0.58277849    -0.60380
H971        H  0.13275814  0.71505431  0.57356258     0.43650
H972        H  0.03880202  0.64003686  0.77111972     0.43610
C973        C  0.31239077  0.92712221  0.72610819    -0.05460
C974        C  0.32644719  0.89797619  0.70650414    -0.32890
C975        C  0.34164924  0.90318139  0.65920001     0.36360
C976        C  0.34375325  0.93874915  0.62986849    -0.05810
C977        C  0.32986997  0.96779406  0.64941075    -0.32780
C978        C  0.31421171  0.96226955  0.69634692     0.36270
H979        H  0.32494116  0.87009244  0.72773675     0.16640
O980        O  0.35409777  0.87291960  0.64222218    -0.60280
H981        H  0.33103799  0.99516637  0.62805799     0.16660
O982        O  0.30005229  0.99110621  0.71173422    -0.60380
H983        H  0.27659541  0.97855660  0.70376530     0.43650
H984        H  0.37668566  0.88162082  0.65263461     0.43610
C985        C  0.14552105  0.81228776  0.55437123    -0.05460
C986        C  0.12767404  0.82082201  0.59479298    -0.32890
C987        C  0.14455541  0.83810325  0.63237179     0.36360
C988        C  0.17966941  0.84745109  0.62895977    -0.05810
C989        C  0.19747850  0.83880351  0.58857930    -0.32780
C990        C  0.18063037  0.82165243  0.55100384     0.36270
H991        H  0.10073364  0.81417505  0.59711832     0.16640
O992        O  0.12630005  0.84364399  0.67307974    -0.60280
H993        H  0.22441758  0.84544167  0.58621831     0.16660
O994        O  0.19897319  0.81624476  0.51035565    -0.60380
H995        H  0.19763196  0.78591488  0.51395829     0.43650
H996        H  0.12236996  0.87041008  0.66645131     0.43610
C997        C  0.18052929  0.84051786  0.12718359    -0.05460
C998        C  0.15562428  0.79794260  0.12574505    -0.32890
C999        C  0.13453217  0.78848143  0.09162403     0.36360
C1000       C  0.13848731  0.82171076  0.05848182    -0.05810
C1001       C  0.16291451  0.86446503  0.06048441    -0.32780
C1002       C  0.18387586  0.87402283  0.09473755     0.36270
H1003       H  0.15190463  0.77212950  0.15165823     0.16640
O1004       O  0.10967247  0.74708158  0.09142294    -0.60280
H1005       H  0.16677569  0.89022989  0.03445726     0.16660
O1006       O  0.20836250  0.91566609  0.09524642    -0.60380
H1007       H  0.19565079  0.93383122  0.10706862     0.43650
H1008       H  0.12195179  0.72890192  0.07819678     0.43610
C1009       C  0.06423457  0.90160254  0.13252929    -0.05460
C1010       C  0.04790509  0.86959638  0.16984890    -0.32890
C1011       C  0.06309037  0.86991521  0.20986030     0.36360
C1012       C  0.09558241  0.90264146  0.21338097    -0.05810
C1013       C  0.11228306  0.93418071  0.17554480    -0.32780
C1014       C  0.09664724  0.93431226  0.13589983     0.36270
H1015       H  0.02294524  0.84412349  0.16817791     0.16640
O1016       O  0.04641071  0.83686160  0.24430013    -0.60280
H1017       H  0.13721927  0.95967504  0.17726402     0.16660
O1018       O  0.11253917  0.96779733  0.10181803    -0.60380
H1019       H  0.10685210  0.99250650  0.11374065     0.43650
H1020       H  0.02814523  0.84455263  0.26190840     0.43610
C1021       C  0.10469531  0.67039671  0.20936277    -0.05460
C1022       C  0.12331391  0.66390580  0.16800995    -0.32890
C1023       C  0.10775052  0.64806347  0.12863665     0.36360
C1024       C  0.07264537  0.63846393  0.12973800    -0.05810
C1025       C  0.05371072  0.64334336  0.17182344    -0.32780
C1026       C  0.06934325  0.65877163  0.21139393     0.36270
H1027       H  0.15031275  0.67122431  0.16594945     0.16640
O1028       O  0.12701712  0.64069537  0.09008513    -0.60280
H1029       H  0.02659316  0.63542039  0.17405881     0.16660
O1030       O  0.04997691  0.66379105  0.25118954    -0.60380
H1031       H  0.04313012  0.63624116  0.27089892     0.43650
H1032       H  0.14223872  0.67018319  0.07529075     0.43610
C1033       C  0.31716857  0.91114835  0.21917059    -0.05460
C1034       C  0.31791778  0.94540625  0.18945548    -0.32890
C1035       C  0.33353132  0.95172295  0.14217566     0.36360
C1036       C  0.34936245  0.92392589  0.12339650    -0.05810
C1037       C  0.34819496  0.88937305  0.15296390    -0.32780
C1038       C  0.33233982  0.88288260  0.19992888     0.36270
H1039       H  0.30556213  0.96694443  0.20204043     0.16640
O1040       O  0.33192717  0.98412564  0.11420217    -0.60280
H1041       H  0.36012126  0.86738172  0.14003793     0.16660
O1042       O  0.33178484  0.84849232  0.22682841    -0.60380
H1043       H  0.31289551  0.82230556  0.21815814     0.43650
H1044       H  0.34548259  0.01221783  0.12707644     0.43610
C1045       C  0.39774550  0.57517025  0.80388772    -0.05460
C1046       C  0.38229171  0.56564370  0.85131850    -0.32890
C1047       C  0.40136821  0.56658854  0.88723753     0.36360
C1048       C  0.43682594  0.57738144  0.87653128    -0.05810
C1049       C  0.45223709  0.58672938  0.82910113    -0.32780
C1050       C  0.43319153  0.58577019  0.79318885     0.36270
H1051       H  0.35521469  0.55753216  0.86108499     0.16640
O1052       O  0.38503516  0.55757756  0.93279038    -0.60280
H1053       H  0.47926274  0.59464785  0.81927469     0.16660
O1054       O  0.44959469  0.59474501  0.74767171    -0.60380
H1055       H  0.46011282  0.62724438  0.74316295     0.43650
H1056       H  0.37510146  0.52508966  0.93751004     0.43610
C1057       C  0.15383123  0.56309215  0.88527716    -0.05460
C1058       C  0.14650908  0.53297580  0.84997848    -0.32890
C1059       C  0.16069973  0.54626510  0.80290705     0.36360
C1060       C  0.18256853  0.59018231  0.78960781    -0.05810
C1061       C  0.19006682  0.62038326  0.82482319    -0.32780
C1062       C  0.17591466  0.60713688  0.87210997     0.36270
H1063       H  0.12886198  0.49916433  0.85825972     0.16640
O1064       O  0.15303830  0.51590157  0.76981517    -0.60280
H1065       H  0.20778570  0.65412117  0.81619081     0.16660
O1066       O  0.18344019  0.63770632  0.90520488    -0.60380
H1067       H  0.20487337  0.63840597  0.91471667     0.43650
H1068       H  0.17222882  0.50615725  0.76578127     0.43610
C1069       C  0.40169269  0.81024484  0.79589418    -0.05460
C1070       C  0.38658200  0.83018785  0.82978032    -0.32890
C1071       C  0.40148775  0.84627186  0.86968552     0.36360
C1072       C  0.43179019  0.84191896  0.87676185    -0.05810
C1073       C  0.44662839  0.82140593  0.84326854    -0.32780
C1074       C  0.43171641  0.80526910  0.80334044     0.36270
H1075       H  0.36330437  0.83386833  0.82496618     0.16640
O1076       O  0.38658389  0.86703657  0.90090014    -0.60280
H1077       H  0.46967317  0.81726016  0.84843742     0.16660
O1078       O  0.44531603  0.78203791  0.77363057    -0.60380
H1079       H  0.46785992  0.80364708  0.75827427     0.43650
H1080       H  0.39749984  0.89850953  0.88980743     0.43610
C1081       C  0.26368441  0.50617753  0.54981301    -0.05460
C1082       C  0.23026756  0.97418166  0.55968322    -0.32890
C1083       C  0.21151644  0.95554757  0.52363664     0.36360
C1084       C  0.22592064  0.96910616  0.47589887    -0.05810
C1085       C  0.25976560  0.50030821  0.46604712    -0.32780
C1086       C  0.27864404  0.51850144  0.50225229     0.36270
H1087       H  0.21848125  0.96315330  0.59571803     0.16640
O1088       O  0.17966327  0.92280680  0.53592217    -0.60280
H1089       H  0.27164004  0.51110488  0.43000967     0.16660
O1090       O  0.31125631  0.54959032  0.49050783    -0.60380
H1091       H  0.32580790  0.53278821  0.48308937     0.43650
H1092       H  0.16479007  0.93767764  0.54960854     0.43610
C1093       C  0.48432844  0.72155275  0.55564300    -0.05460
C1094       C  0.00971272  0.76312498  0.54095841    -0.32890
C1095       C  0.02516347  0.77354363  0.49389111     0.36360
C1096       C  0.01566638  0.74179158  0.46002453    -0.05810
C1097       C  0.49041130  0.70019683  0.47464468    -0.32780
C1098       C  0.47440563  0.69006733  0.52153796     0.36270
H1099       H  0.01710220  0.78814415  0.56602094     0.16640
O1100       O  0.05017821  0.81467402  0.48187728    -0.60280
H1101       H  0.48258263  0.67565894  0.44929477     0.16660
O1102       O  0.44749287  0.65035485  0.53253579    -0.60380
H1103       H  0.45795682  0.62975533  0.53971034     0.43650
H1104       H  0.03781509  0.83367648  0.47703030     0.43610
C1105       C  0.27136052  0.74496035  0.53764007    -0.05460
C1106       C  0.28947470  0.76775433  0.49484935    -0.32890
C1107       C  0.27312972  0.76736563  0.45632967     0.36360
C1108       C  0.23750012  0.74343730  0.45962263    -0.05810
C1109       C  0.21921712  0.72021735  0.50253125    -0.32780
C1110       C  0.23576121  0.72102353  0.54134011     0.36270
H1111       H  0.31668090  0.78661100  0.49119450     0.16640
O1112       O  0.29264120  0.79041504  0.41571703    -0.60280
H1113       H  0.19183949  0.70168090  0.50625582     0.16660
O1114       O  0.21683616  0.69824938  0.58248162    -0.60380
H1115       H  0.21603077  0.66807399  0.57957408     0.43650
H1116       H  0.29468950  0.82103070  0.41951307     0.43610
C1117       C  0.30824921  0.66316228  0.88805176    -0.05460
C1118       C  0.33448106  0.70443542  0.89129349    -0.32890
C1119       C  0.35224744  0.71215922  0.92902841     0.36360
C1120       C  0.34400075  0.67832180  0.96344722    -0.05810
C1121       C  0.31672111  0.63779985  0.96133348    -0.32780
C1122       C  0.29900710  0.63000697  0.92355338     0.36270
H1123       H  0.34226895  0.73024244  0.86375300     0.16640
O1124       O  0.37863566  0.75198456  0.93090529    -0.60280
H1125       H  0.30890382  0.61224110  0.98910409     0.16660
O1126       O  0.27253241  0.59024728  0.92175575    -0.60380
H1127       H  0.28322208  0.57157228  0.90525736     0.43650
H1128       H  0.36771548  0.77118655  0.94555612     0.43610
C1129       C  0.31181176  0.65700913  0.38854172    -0.05460
C1130       C  0.34460131  0.65656562  0.37894095    -0.32890
C1131       C  0.36377819  0.66072321  0.41481602     0.36360
C1132       C  0.35004186  0.66559055  0.46034276    -0.05810
C1133       C  0.31701670  0.66526558  0.47010429    -0.32780
C1134       C  0.29776435  0.66092527  0.43428203     0.36270
H1135       H  0.35542329  0.65354171  0.34345855     0.16640
O1136       O  0.39633210  0.66214657  0.40469970    -0.60280
H1137       H  0.30625062  0.66839739  0.50558110     0.16660
O1138       O  0.26495209  0.65862143  0.44464713    -0.60380
H1139       H  0.26469822  0.68400815  0.42683685     0.43650
H1140       H  0.39593148  0.63631698  0.42248001     0.43610
C1141       C  0.42971013  0.58926949  0.37674899    -0.05460
C1142       C  0.39591343  0.55817319  0.38050365    -0.32890
C1143       C  0.37665800  0.55501400  0.34425571     0.36360
C1144       C  0.39122773  0.58293888  0.30298129    -0.05810
C1145       C  0.42496104  0.61418319  0.29942688    -0.32780
C1146       C  0.44404055  0.61767118  0.33589128     0.36270
H1147       H  0.38444570  0.53581995  0.41142646     0.16640
O1148       O  0.34405908  0.52333936  0.34881709    -0.60280
H1149       H  0.43639729  0.63684141  0.26873520     0.16660
O1150       O  0.47607156  0.65050757  0.33228475    -0.60380
H1151       H  0.49062590  0.64141023  0.30847647     0.43650
H1152       H  0.33019802  0.53357393  0.37260942     0.43610
C1153       C  0.17808614  0.60319754  0.29675470    -0.05460
C1154       C  0.15782913  0.55895615  0.31064672    -0.32890
C1155       C  0.14243440  0.54547864  0.35748654     0.36360
C1156       C  0.14717489  0.57660507  0.39223927    -0.05810
C1157       C  0.16800041  0.62063808  0.37853098    -0.32780
C1158       C  0.18350984  0.63399112  0.33185349     0.36270
H1159       H  0.15412210  0.53436045  0.28495942     0.16640
O1160       O  0.12270013  0.50178292  0.36832890    -0.60280
H1161       H  0.17194407  0.64517934  0.40427885     0.16660
O1162       O  0.20493734  0.67708777  0.32185640    -0.60380
H1163       H  0.18980559  0.69166785  0.31509035     0.43650
H1164       H  0.10145949  0.49592247  0.35510800     0.43610
C1165       C  0.39773713  0.82333073  0.30356482    -0.05460
C1166       C  0.37805858  0.81408929  0.34861065    -0.32890
C1167       C  0.39272971  0.83035245  0.38854969     0.36360
C1168       C  0.42798907  0.85639013  0.38453056    -0.05810
C1169       C  0.44775916  0.86580630  0.33945150    -0.32780
C1170       C  0.43302959  0.84972299  0.29932368     0.36270
H1171       H  0.35095161  0.79373658  0.35322835     0.16640
O1172       O  0.37225348  0.81963891  0.43138591    -0.60280
H1173       H  0.47485389  0.88624521  0.33499064     0.16660
O1174       O  0.45332517  0.86117331  0.25624918    -0.60380
H1175       H  0.46620606  0.84196355  0.25379413     0.43650
H1176       H  0.36086694  0.84057796  0.43383586     0.43610
C1177       C  0.25769807  0.52297593  0.04893556    -0.05460
C1178       C  0.22319778  0.51635594  0.05181195    -0.32890
C1179       C  0.20510525  0.99963219  0.01475088     0.36360
C1180       C  0.22125070  0.98903811  0.97332158    -0.05810
C1181       C  0.25600285  0.49645698  0.96989419    -0.32780
C1182       C  0.27425108  0.51352752  0.00704979     0.36270
H1183       H  0.20991870  0.52421904  0.08293216     0.16640
O1184       O  0.17164093  0.99449206  0.01929197    -0.60280
H1185       H  0.26899785  0.98833777  0.93862338     0.16660
O1186       O  0.30789050  0.51924793  0.00270514    -0.60380
H1187       H  0.32067147  0.54593401  0.98140570     0.43650
H1188       H  0.15884141  0.96702871  0.03937480     0.43610
C1189       C  0.48014141  0.73936416  0.05927742    -0.05460
C1190       C  0.47573852  0.76800021  0.02720205    -0.32890
C1191       C  0.49013133  0.77250376  0.97981055     0.36360
C1192       C  0.00943026  0.74831547  0.96284272    -0.05810
C1193       C  0.01414169  0.71990024  0.99503233    -0.32780
C1194       C  0.99992952  0.71560278  0.04269317     0.36270
H1195       H  0.46039822  0.78649156  0.03844307     0.16640
O1196       O  0.48541249  0.80115594  0.95024317    -0.60280
H1197       H  0.02979990  0.70185227  0.98401094     0.16660
O1198       O  0.00550895  0.68794655  0.07273119    -0.60380
H1199       H  0.02720406  0.70610014  0.08381485     0.43650
H1200       H  0.50398566  0.82990897  0.95351694     0.43610
C1201       C  0.23127259  0.75817740  0.96937608    -0.05460
C1202       C  0.21524771  0.75657484  0.01600277    -0.32890
C1203       C  0.23244359  0.75756201  0.05437905     0.36360
C1204       C  0.26636497  0.76031753  0.04674418    -0.05810
C1205       C  0.28196131  0.76117280  0.00010598    -0.32780
C1206       C  0.26494601  0.76025648  0.96193947     0.36270
H1207       H  0.18941700  0.75519093  0.02282411     0.16640
O1208       O  0.21619259  0.75715462  0.09898308    -0.60280
H1209       H  0.30751276  0.76188698  0.99259181     0.16660
O1210       O  0.28107571  0.75938061  0.91757386    -0.60380
H1211       H  0.29937793  0.78918912  0.91011156     0.43650
H1212       H  0.20160200  0.72582251  0.10806777     0.43610
C1213       C  0.86206381  0.18561587  0.00332926     0.42470
N1214       N  0.86656765  0.20622341  0.07277848     0.01360
C1215       C  0.83500191  0.07531521  0.27197615    -0.06520
H1216       H  0.73458401  0.03430014  0.15256659     0.06850
C1217       C  0.71909366  0.15912626  0.22834934    -0.06870
Co1218     Co  0.86203848  0.13354735  0.13692388     0.74180
N1219       N  0.78762941  0.07298548  0.15608360    -0.26050
Co1220     Co  0.78816923  0.10326876  0.21896455     0.74070
C1221       C  0.69780190  0.11428809  0.24805431     0.42570
N1222       N  0.79755713  0.24018921  0.15007116     0.00970
N1223       N  0.74615159  0.11708751  0.21055528     0.01080
N1224       N  0.88427712  0.10009425  0.22079614    -0.46900
H1225       H  0.86017974  0.11766110  0.02328036     0.06840
N1226       N  0.81591480  0.08316831  0.12565058     0.01360
N1227       N  0.78952298  0.13634096  0.27923480     0.01100
C1228       C  0.79286400  0.15305476  0.35008843     0.42710
N1229       N  0.82646734  0.25311209  0.12046401    -0.25510
C1230       C  0.93787689  0.18479684  0.12468185    -0.06430
N1231       N  0.86479472  0.21944332  0.03049105    -0.46610
N1232       N  0.78977974  0.12072558  0.32100335    -0.46830
C1233       C  0.95979055  0.23001200  0.10737569     0.42480
N1234       N  0.85899803  0.10366800  0.20199484     0.01350
N1235       N  0.86923355  0.27129559  0.19578305    -0.25530
N1236       N  0.86456217  0.16555119  0.07476051    -0.26020
N1237       N  0.84101236  0.26035967  0.22648639     0.00990
H1238       H  0.92206956  0.31110958  0.19877210     0.06880
H1239       H  0.79819454  0.22343275  0.33287773     0.06920
N1240       N  0.83018417  0.09058897  0.23176988    -0.26070
N1241       N  0.74905670  0.15827993  0.20910851    -0.25680
N1242       N  0.91055605  0.22662124  0.14224963     0.01360
C1243       C  0.77603151  0.04081056  0.08921486     0.42750
C1244       C  0.82198082  0.26829019  0.08008991    -0.06930
N1245       N  0.79262975  0.17750922  0.27860376    -0.25680
H1246       H  0.71619680  0.18902517  0.23802143     0.06900
N1247       N  0.80999574  0.06491348  0.08522159    -0.46900
H1248       H  0.84109077  0.27949832  0.04900804     0.06890
C1249       C  0.88058988  0.30390191  0.26269627     0.42590
C1250       C  0.86284040  0.15036508  0.03224031    -0.06430
Co1251     Co  0.86849311  0.24048001  0.13303169     0.73820
N1252       N  0.77238705  0.24371687  0.13062758    -0.46620
C1253       C  0.87093242  0.08195335  0.26505583     0.42850
N1254       N  0.94127934  0.25377085  0.12171077    -0.46610
Co1255     Co  0.79483717  0.21015256  0.21572033     0.73890
C1256       C  0.79458686  0.19086537  0.32221453    -0.06940
C1257       C  0.76114051  0.04610610  0.13659141    -0.06500
N1258       N  0.90772374  0.18544538  0.14342952    -0.26030
N1259       N  0.71586096  0.09029837  0.23275435    -0.46790
H1260       H  0.81647283  0.06481266  0.30365544     0.06860
C1261       C  0.89560455  0.29900181  0.21507812    -0.06910
Cl1262     Cl  0.82838546  0.17194781  0.17617733    -0.49910
C1263       C  0.78594945  0.26128011  0.08602872     0.42620
H1264       H  0.94052658  0.15541527  0.11214617     0.06830
N1265       N  0.84681047  0.27866852  0.26679607    -0.46630
C1266       C  0.78194026  0.02692080  0.58935447     0.42470
N1267       N  0.82147522  0.07078867  0.62515924     0.01360
C1268       C  0.79457868  0.18771398  0.81280602    -0.06520
H1269       H  0.72036146  0.17637778  0.73464192     0.06850
C1270       C  0.82689992  0.25228932  0.57032012    -0.06870
Co1271     Co  0.79373240  0.09402184  0.71738857     0.74180
N1272       N  0.75377241  0.14706474  0.70294506    -0.26050
Co1273     Co  0.79933385  0.20003184  0.70730586     0.74070
C1274       C  0.79082029  0.24502380  0.57626462     0.42570
N1275       N  0.87292163  0.19240747  0.56806325     0.00970
N1276       N  0.80263868  0.22662439  0.64084333     0.01080
N1277       N  0.79352749  0.11928362  0.82015808    -0.46900
H1278       H  0.74027345  0.02100165  0.65214621     0.06840
N1279       N  0.75166041  0.10620899  0.70527764     0.01360
N1280       N  0.84527392  0.25122752  0.71736462     0.01100
C1281       C  0.88477799  0.29300149  0.75455472     0.42710
N1282       N  0.87018399  0.15148262  0.57102836    -0.25510
C1283       C  0.84122215  0.07058560  0.77397158    -0.06430
N1284       N  0.81570844  0.05192282  0.58502889    -0.46610
N1285       N  0.85075475  0.27014272  0.75751079    -0.46830
C1286       C  0.87690465  0.07556825  0.76670306     0.42480
N1287       N  0.79462931  0.13099468  0.77601502     0.01350
N1288       N  0.91269732  0.17326735  0.64212392    -0.25530
N1289       N  0.79327640  0.06069786  0.65575485    -0.26020
N1290       N  0.91592697  0.21442765  0.63725680     0.00990
H1291       H  0.94564919  0.14084111  0.61883974     0.06880
H1292       H  0.92698780  0.29695786  0.69342679     0.06920
N1293       N  0.79610787  0.17124183  0.77111334    -0.26070
N1294       N  0.83164917  0.23898685  0.61153336    -0.25680
N1295       N  0.86420730  0.09356343  0.70214239     0.01360
C1296       C  0.70258805  0.10188676  0.74140926     0.42750
C1297       C  0.86878206  0.13628942  0.52819393    -0.06930
N1298       N  0.87391444  0.26002510  0.68801119    -0.25680
H1299       H  0.84562989  0.26203855  0.53879171     0.06900
N1300       N  0.72140621  0.07877411  0.72668573    -0.46900
H1301       H  0.86603154  0.10355728  0.51940978     0.06890
C1302       C  0.96457581  0.21483767  0.60392350     0.42590
C1303       C  0.76691632  0.03269358  0.63658107    -0.06430
Co1304     Co  0.86729231  0.12121736  0.63551885     0.73820
N1305       N  0.87265908  0.20598892  0.52536823    -0.46620
C1306       C  0.79364341  0.15377878  0.84512381     0.42850
N1307       N  0.88946754  0.09013755  0.72117473    -0.46610
Co1308     Co  0.87388265  0.22771700  0.62651272     0.73890
C1309       C  0.90026434  0.28643057  0.70814609    -0.06940
C1310       C  0.72361023  0.14710781  0.72292972    -0.06500
N1311       N  0.83594302  0.08312817  0.73262745    -0.26030
N1312       N  0.77733624  0.22891144  0.62102811    -0.46790
H1313       H  0.79535053  0.22016350  0.81939664     0.06860
C1314       C  0.94278458  0.17126409  0.62608357    -0.06910
Cl1315     Cl  0.83356091  0.16068599  0.67172136    -0.49910
C1316       C  0.86989282  0.17238126  0.49817017     0.42620
H1317       H  0.82292310  0.06200460  0.80593656     0.06830
N1318       N  0.94660453  0.23990046  0.61492234    -0.46630
C1319       C  0.71873386  0.24397695  0.42014978     0.42470
N1320       N  0.67805911  0.24760283  0.38665667     0.01360
C1321       C  0.69994778  0.38585881  0.19650967    -0.06520
H1322       H  0.77759713  0.45638000  0.27602000     0.06850
C1323       C  0.67031902  0.42230988  0.44025148    -0.06870
Co1324     Co  0.70495603  0.29845024  0.29435599     0.74180
N1325       N  0.74489143  0.39260096  0.30690921    -0.26050
Co1326     Co  0.69901112  0.39857062  0.30268667     0.74070
C1327       C  0.70648810  0.45077784  0.43633558     0.42570
N1328       N  0.62579955  0.31663894  0.44351625     0.00970
N1329       N  0.69575801  0.42218881  0.37003459     0.01080
N1330       N  0.70178544  0.31880412  0.19294741    -0.46900
H1331       H  0.75870704  0.27983491  0.35489407     0.06840
N1332       N  0.74732979  0.35412216  0.30420662     0.01360
N1333       N  0.65286682  0.40276551  0.29233287     0.01100
C1334       C  0.61293911  0.40362698  0.25499498     0.42710
N1335       N  0.62929953  0.27893618  0.44093306    -0.25510
C1336       C  0.65880689  0.22406848  0.24075245    -0.06430
N1337       N  0.68472422  0.23402483  0.42585974    -0.46610
N1338       N  0.64703322  0.41544896  0.25196458    -0.46830
C1339       C  0.62345089  0.19251828  0.24775745     0.42480
N1340       N  0.70316690  0.33259297  0.23564378     0.01350
N1341       N  0.58538345  0.25649107  0.37305614    -0.25530
N1342       N  0.70587029  0.26665253  0.35553281    -0.26020
N1343       N  0.58290828  0.29502455  0.37281599     0.00990
H1344       H  0.55251227  0.19443755  0.40840043     0.06880
H1345       H  0.57133013  0.36586878  0.31756766     0.06920
N1346       N  0.70137997  0.37128288  0.23882307    -0.26070
N1347       N  0.66643951  0.40495084  0.39866710    -0.25680
N1348       N  0.63436772  0.22607706  0.31107835     0.01360
C1349       C  0.79599730  0.40042633  0.26707735     0.42750
C1350       C  0.63103239  0.26531173  0.48363537    -0.06930
N1351       N  0.62440310  0.38275235  0.32205689    -0.25680
H1352       H  0.65039224  0.41327350  0.47028577     0.06900
N1353       N  0.77743678  0.35793787  0.28160288    -0.46900
H1354       H  0.63465751  0.23590463  0.49227672     0.06890
C1355       C  0.53426996  0.25030432  0.41095840     0.42590
C1356       C  0.73268600  0.26532193  0.37287124    -0.06430
Co1357     Co  0.63156837  0.25102175  0.37754955     0.73820
N1358       N  0.62557107  0.33023954  0.48636294    -0.46620
C1359       C  0.69945382  0.35059078  0.16636546     0.42850
N1360       N  0.60965277  0.19574174  0.29225231    -0.46610
Co1361     Co  0.62465981  0.35071698  0.38383580     0.73890
C1362       C  0.59790267  0.38219053  0.30209319    -0.06940
C1363       C  0.77481985  0.42374691  0.28674171    -0.06500
N1364       N  0.66299233  0.24381939  0.28104286    -0.26030
N1365       N  0.72064101  0.44938179  0.39134259    -0.46790
H1366       H  0.69714610  0.41600570  0.18866722     0.06860
C1367       C  0.55539265  0.22618395  0.39429526    -0.06910
Cl1368     Cl  0.66504897  0.32464015  0.33959715    -0.49910
C1369       C  0.62870573  0.29958590  0.51360782     0.42620
H1370       H  0.67758723  0.23301301  0.20924643     0.06830
N1371       N  0.55260098  0.29199398  0.39370410    -0.46630
C1372       C  0.71304994  0.25864604  0.92908592     0.42470
N1373       N  0.67310107  0.26020690  0.89239127     0.01360
C1374       C  0.69442639  0.39488171  0.69929053    -0.06520
H1375       H  0.77155542  0.47002816  0.78792546     0.06850
C1376       C  0.66576982  0.43682712  0.94197121    -0.06870
Co1377     Co  0.70089538  0.31026787  0.79950459     0.74180
N1378       N  0.73914851  0.40458291  0.81231837    -0.26050
Co1379     Co  0.69323084  0.40959310  0.80572452     0.74070
C1380       C  0.70147173  0.46776889  0.93532128     0.42570
N1381       N  0.62061563  0.32916856  0.94700864     0.00970
N1382       N  0.68998294  0.43509920  0.87156245     0.01080
N1383       N  0.69974641  0.32986598  0.69701812    -0.46900
H1384       H  0.75446857  0.29568429  0.86602164     0.06840
N1385       N  0.74258347  0.36676656  0.80915166     0.01360
N1386       N  0.64698411  0.41250400  0.79512453     0.01100
C1387       C  0.60733531  0.41678944  0.76006972     0.42710
N1388       N  0.62338341  0.29101690  0.94462811    -0.25510
C1389       C  0.65483689  0.23730558  0.74445440    -0.06430
N1390       N  0.67906902  0.24816713  0.93297753    -0.46610
N1391       N  0.64103476  0.42554282  0.75515699    -0.46830
C1392       C  0.61876277  0.20807036  0.74953869     0.42480
N1393       N  0.69947103  0.34366170  0.73977242     0.01350
N1394       N  0.58085272  0.26808694  0.87529320    -0.25530
N1395       N  0.70139829  0.27915229  0.86199256    -0.26020
N1396       N  0.57766166  0.30616037  0.87745821     0.00990
H1397       H  0.54888346  0.20398235  0.90597136     0.06880
H1398       H  0.56595718  0.38112621  0.82364304     0.06920
N1399       N  0.69609159  0.38145965  0.74217728    -0.26070
N1400       N  0.66122759  0.41771307  0.90133049    -0.25680
N1401       N  0.63013253  0.23818182  0.81483787     0.01360
C1402       C  0.79120430  0.41515150  0.77414600     0.42750
C1403       C  0.62341956  0.27650174  0.98765973    -0.06930
N1404       N  0.61883324  0.39414610  0.82582946    -0.25680
H1405       H  0.64702339  0.42718493  0.97340207     0.06900
N1406       N  0.77325723  0.37211914  0.78721946    -0.46900
H1407       H  0.62615490  0.24649416  0.99640093     0.06890
C1408       C  0.52940221  0.25879731  0.91437136     0.42590
C1409       C  0.72792201  0.27933281  0.88162801    -0.06430
Co1410     Co  0.62675209  0.26312969  0.88124908     0.73820
N1411       N  0.61960121  0.34247125  0.98992138    -0.46620
C1412       C  0.69661903  0.36039096  0.66958448     0.42850
N1413       N  0.60498815  0.21041787  0.79436941    -0.46610
Co1414     Co  0.61941875  0.36268276  0.88757936     0.73890
C1415       C  0.59244197  0.39567513  0.80723858    -0.06940
C1416       C  0.76910274  0.43691356  0.79500414    -0.06500
N1417       N  0.65919231  0.25533893  0.78565756    -0.26030
N1418       N  0.71500539  0.46452092  0.89073554    -0.46790
H1419       H  0.69093375  0.42428718  0.69018566     0.06860
C1420       C  0.55116340  0.23633083  0.89494831    -0.06910
Cl1421     Cl  0.66007422  0.33644204  0.84353411    -0.49910
C1422       C  0.62148331  0.31105160  0.01754466     0.42620
H1423       H  0.67392197  0.24700364  0.71334837     0.06830
N1424       N  0.54723111  0.30142781  0.89969206    -0.46630
C1425       C  0.94925577  0.36025109  0.91729783     0.42470
N1426       N  0.98926911  0.40203635  0.95364342     0.01360
C1427       C  0.46682790  0.01188481  0.14827527    -0.06520
H1428       H  0.89099910  0.50829274  0.06881267     0.06850
C1429       C  0.99383877  0.08432906  0.90626690    -0.06870
Co1430     Co  0.96205380  0.42227277  0.04738190     0.74180
N1431       N  0.92253927  0.47693969  0.03733546    -0.26050
Co1432     Co  0.96838799  0.02881204  0.04265890     0.74070
C1433       C  0.95777634  0.07746353  0.91370726     0.42570
N1434       N  0.54076294  0.02515858  0.89938981     0.00970
N1435       N  0.97081743  0.05782679  0.97712628     0.01080
N1436       N  0.46461901  0.44271913  0.15013913    -0.46900
H1437       H  0.90781639  0.35355292  0.98061772     0.06840
N1438       N  0.91951946  0.43572013  0.03938580     0.01360
N1439       N  0.51447065  0.07927978  0.05286071     0.01100
C1440       C  0.55474166  0.12130776  0.08891167     0.42710
N1441       N  0.53757068  0.48398926  0.90059261    -0.25510
C1442       C  0.50918889  0.39505039  0.09988243    -0.06430
N1443       N  0.98318759  0.38415901  0.91313624    -0.46610
N1444       N  0.52074737  0.09728358  0.09324846    -0.46830
C1445       C  0.54519376  0.40246490  0.09344437     0.42480
N1446       N  0.96421957  0.45659183  0.10746089     0.01350
N1447       N  0.58160311  0.00467026  0.96917676    -0.25530
N1448       N  0.96106344  0.39175365  0.98438038    -0.26020
N1449       N  0.58405863  0.04568472  0.96887241     0.00990
H1450       H  0.61523952  0.97582208  0.93745274     0.06880
H1451       H  0.59549674  0.12854247  0.02407503     0.06920
N1452       N  0.96624687  0.99728311  0.10537037    -0.26070
N1453       N  0.99930815  0.07031151  0.94671078    -0.25680
N1454       N  0.53326303  0.42328803  0.02972552     0.01360
C1455       C  0.87087989  0.43348602  0.07579912     0.42750
C1456       C  0.03557279  0.47003634  0.85722564    -0.06930
N1457       N  0.54249634  0.08965523  0.02195170    -0.25680
H1458       H  0.01222359  0.09479064  0.87443552     0.06900
N1459       N  0.88908507  0.40923700  0.06166209    -0.46900
H1460       H  0.03193813  0.43731450  0.84709168     0.06890
C1461       C  0.63344870  0.05055781  0.93323529     0.42590
C1462       C  0.93439631  0.36528370  0.96474840    -0.06430
Co1463     Co  0.53565110  0.45234240  0.96368983     0.73820
N1464       N  0.04069767  0.04026781  0.85726993    -0.46620
C1465       C  0.46583306  0.97579752  0.17772338     0.42850
N1466       N  0.55870813  0.42047384  0.04904947    -0.46610
Co1467     Co  0.54184681  0.05875924  0.95955208     0.73890
C1468       C  0.56918902  0.11661696  0.04098539    -0.06940
C1469       C  0.89283672  0.47830559  0.05702771    -0.06500
N1470       N  0.50437409  0.40997897  0.05950365    -0.26030
N1471       N  0.94521930  0.06089978  0.95866747    -0.46790
H1472       H  0.46916904  0.04442497  0.15749838     0.06860
C1473       C  0.61193212  0.00484536  0.94985636    -0.06910
Cl1474     Cl  0.50197486  0.99045764  0.00330371    -0.49910
C1475       C  0.03741728  0.50746679  0.82865516     0.42620
H1476       H  0.49064878  0.38447160  0.13162158     0.06830
N1477       N  0.61460665  0.07352595  0.94859968    -0.46630
C1478       C  0.94460454  0.37508389  0.42604685     0.42470
N1479       N  0.98364869  0.41810859  0.46333697     0.01360
C1480       C  0.46212573  0.03358843  0.65291746    -0.06520
H1481       H  0.88254672  0.52413808  0.57605160     0.06850
C1482       C  0.98617885  0.09748459  0.40732394    -0.06870
Co1483     Co  0.95467586  0.44127175  0.55404863     0.74180
N1484       N  0.91504832  0.49468067  0.54234977    -0.26050
Co1485     Co  0.96102538  0.04760685  0.54621224     0.74070
C1486       C  0.95023407  0.09069591  0.41443720     0.42570
N1487       N  0.53334583  0.03849062  0.40480628     0.00970
N1488       N  0.96317760  0.07359846  0.47898286     0.01080
N1489       N  0.45605031  0.46298204  0.65564775    -0.46900
H1490       H  0.90224940  0.37095201  0.48764045     0.06840
N1491       N  0.91262706  0.45368043  0.54322813     0.01360
N1492       N  0.50712882  0.09933323  0.55480019     0.01100
C1493       C  0.54766375  0.14355809  0.58938095     0.42710
N1494       N  0.53211445  0.49833400  0.40935856    -0.25510
C1495       C  0.49985782  0.41485231  0.61025516    -0.06430
N1496       N  0.97848285  0.39902890  0.42326490    -0.46610
N1497       N  0.51367288  0.11896005  0.59438105    -0.46830
C1498       C  0.53549675  0.42060549  0.60536383     0.42480
N1499       N  0.95558718  0.47669997  0.61308670     0.01350
N1500       N  0.57459557  0.02264192  0.47870737    -0.25530
N1501       N  0.95494173  0.40879214  0.49261090    -0.26020
N1502       N  0.57686059  0.06345536  0.47427143     0.00990
H1503       H  0.60842391  0.99211229  0.45270366     0.06880
H1504       H  0.58793994  0.14807574  0.52466998     0.06920
N1505       N  0.95933162  0.01806974  0.61031285    -0.26070
N1506       N  0.99167978  0.08534462  0.44862653    -0.25680
N1507       N  0.52565034  0.44218176  0.54059572     0.01360
C1508       C  0.86407728  0.44938447  0.58146146     0.42750
C1509       C  0.03273842  0.48206279  0.36731709    -0.06930
N1510       N  0.53497565  0.10902977  0.52369435    -0.25680
H1511       H  0.00430572  0.10612413  0.37519492     0.06900
N1512       N  0.88252849  0.42620098  0.56523680    -0.46900
H1513       H  0.03135770  0.44947892  0.36007026     0.06890
C1514       C  0.62606619  0.06641466  0.43994724     0.42590
C1515       C  0.92887304  0.38150715  0.47261707    -0.06430
Co1516     Co  0.52925648  0.46941423  0.47372310     0.73820
N1517       N  0.03373767  0.05040279  0.36102324    -0.46620
C1518       C  0.46013172  0.99691267  0.68284065     0.42850
N1519       N  0.55010720  0.43807830  0.56108082    -0.46610
Co1520     Co  0.53434726  0.07527353  0.46296756     0.73890
C1521       C  0.56174752  0.13711495  0.54176170    -0.06940
C1522       C  0.88515230  0.49479410  0.56330350    -0.06500
N1523       N  0.49636014  0.42977103  0.56919213    -0.26030
N1524       N  0.93745039  0.07527712  0.45966408    -0.46790
H1525       H  0.46645996  0.06684842  0.66158738     0.06860
C1526       C  0.60493714  0.02198924  0.46087376    -0.06910
Cl1527     Cl  0.99485177  0.00845150  0.50927468    -0.49910
C1528       C  0.03375126  0.51646375  0.33543810     0.42620
H1529       H  0.48030274  0.40470504  0.64078516     0.06830
N1530       N  0.60722788  0.09012996  0.45221775    -0.46630
C1531       C  0.48032982  0.00225259  0.72003088    -0.05460
C1532       C  0.96455559  0.99715213  0.76655505    -0.32890
C1533       C  0.98300126  0.49738038  0.80237597     0.36360
C1534       C  0.01746923  0.50292052  0.79128211    -0.05810
C1535       C  0.53323827  0.00789117  0.74474135    -0.32780
C1536       C  0.51478704  0.00772218  0.70890544     0.36270
H1537       H  0.93792162  0.99232834  0.77499018     0.16640
O1538       O  0.96738685  0.49273878  0.84814476    -0.60280
H1539       H  0.55980814  0.01240750  0.73631503     0.16660
O1540       O  0.53028235  0.01198569  0.66311612    -0.60380
H1541       H  0.53905926  0.04378287  0.65386138     0.43650
H1542       H  0.95916742  0.46100966  0.85738125     0.43610
C1543       C  0.01654250  0.50603001  0.29508892    -0.05460
C1544       C  0.53574363  0.01577416  0.25028863    -0.32890
C1545       C  0.51917349  0.00457925  0.21141121     0.36360
C1546       C  0.48328023  0.98350944  0.21788999    -0.05810
C1547       C  0.96413945  0.47312053  0.26271593    -0.32780
C1548       C  0.98067966  0.48443928  0.30156407     0.36270
H1549       H  0.56338831  0.03191506  0.24555763     0.16640
O1550       O  0.53806070  0.01394025  0.16726770    -0.60280
H1551       H  0.93649508  0.45698338  0.26747223     0.16660
O1552       O  0.96178924  0.47404125  0.34570835    -0.60380
H1553       H  0.95678600  0.50015014  0.35386432     0.43650
H1554       H  0.54242566  0.04493086  0.15911131     0.43610
C1555       C  0.58924573  0.41936643  0.72070931    -0.05460
C1556       C  0.55399476  0.39463159  0.72452220    -0.32890
C1557       C  0.53644894  0.39407959  0.68715438     0.36360
C1558       C  0.55403828  0.41875846  0.64453807    -0.05810
C1559       C  0.58934463  0.44370502  0.64066990    -0.32780
C1560       C  0.60694025  0.44420463  0.67821549     0.36270
H1561       H  0.53979375  0.37466231  0.75627425     0.16640
O1562       O  0.50231147  0.36758314  0.69216840    -0.60280
H1563       H  0.60337061  0.46339804  0.60864354     0.16660
O1564       O  0.64130925  0.46970878  0.67323146    -0.60380
H1565       H  0.65255091  0.45378390  0.65267116     0.43650
H1566       H  0.49074476  0.38170737  0.71483679     0.43610
C1567       C  0.56614684  0.16139701  0.62990341    -0.05460
C1568       C  0.54731670  0.15852241  0.67497022    -0.32890
C1569       C  0.56368131  0.17260560  0.71443947     0.36360
C1570       C  0.59969259  0.19009457  0.70964612    -0.05810
C1571       C  0.61833891  0.19266307  0.66470931    -0.32780
C1572       C  0.60217436  0.17925539  0.62531900     0.36270
H1573       H  0.51963892  0.14504380  0.67984402     0.16640
O1574       O  0.54413465  0.16981311  0.75720476    -0.60280
H1575       H  0.64594823  0.20536820  0.65939716     0.16660
O1576       O  0.62222538  0.18316756  0.58277848    -0.60380
H1577       H  0.63275814  0.21505432  0.57356258     0.43650
H1578       H  0.53880204  0.14003683  0.77111972     0.43610
C1579       C  0.81239077  0.42712221  0.72610818    -0.05460
C1580       C  0.82644720  0.39797620  0.70650412    -0.32890
C1581       C  0.84164925  0.40318139  0.65919999     0.36360
C1582       C  0.84375325  0.43874914  0.62986848    -0.05810
C1583       C  0.82986996  0.46779405  0.64941073    -0.32780
C1584       C  0.81421171  0.46226953  0.69634691     0.36270
H1585       H  0.82494118  0.37009245  0.72773674     0.16640
O1586       O  0.85409778  0.37291961  0.64222217    -0.60280
H1587       H  0.83103797  0.49516636  0.62805797     0.16660
O1588       O  0.80005227  0.49110618  0.71173420    -0.60380
H1589       H  0.77659538  0.47855656  0.70376529     0.43650
H1590       H  0.87668567  0.38162083  0.65263459     0.43610
C1591       C  0.64552105  0.31228779  0.55437122    -0.05460
C1592       C  0.62767404  0.32082202  0.59479299    -0.32890
C1593       C  0.64455542  0.33810324  0.63237180     0.36360
C1594       C  0.67966942  0.34745109  0.62895977    -0.05810
C1595       C  0.69747851  0.33880354  0.58857929    -0.32780
C1596       C  0.68063038  0.32165247  0.55100382     0.36270
H1597       H  0.60073364  0.31417504  0.59711833     0.16640
O1598       O  0.62630005  0.34364396  0.67307976    -0.60280
H1599       H  0.72441759  0.34544171  0.58621829     0.16660
O1600       O  0.69897319  0.31624482  0.51035562    -0.60380
H1601       H  0.69763199  0.28591495  0.51395824     0.43650
H1602       H  0.62236995  0.37041004  0.66645135     0.43610
C1603       C  0.68052931  0.34051785  0.12718358    -0.05460
C1604       C  0.65562429  0.29794260  0.12574505    -0.32890
C1605       C  0.63453218  0.28848142  0.09162404     0.36360
C1606       C  0.63848733  0.32171075  0.05848181    -0.05810
C1607       C  0.66291455  0.36446501  0.06048438    -0.32780
C1608       C  0.68387590  0.37402281  0.09473752     0.36270
H1609       H  0.65190463  0.27212950  0.15165825     0.16640
O1610       O  0.60967247  0.24708158  0.09142296    -0.60280
H1611       H  0.66677575  0.39022986  0.03445721     0.16660
O1612       O  0.70836256  0.41566606  0.09524637    -0.60380
H1613       H  0.69565085  0.43383120  0.10706859     0.43650
H1614       H  0.62195178  0.22890190  0.07819678     0.43610
C1615       C  0.56423454  0.40160248  0.13252928    -0.05460
C1616       C  0.54790506  0.36959633  0.16984890    -0.32890
C1617       C  0.56309034  0.36991518  0.20986029     0.36360
C1618       C  0.59558238  0.40264142  0.21338095    -0.05810
C1619       C  0.61228303  0.43418067  0.17554477    -0.32780
C1620       C  0.59664721  0.43431220  0.13589981     0.36270
H1621       H  0.52294521  0.34412344  0.16817792     0.16640
O1622       O  0.54641066  0.33686159  0.24430016    -0.60280
H1623       H  0.63721924  0.45967500  0.17726398     0.16660
O1624       O  0.61253912  0.46779728  0.10181802    -0.60380
H1625       H  0.60685162  0.49250622  0.11374036     0.43650
H1626       H  0.52814522  0.34455267  0.26190843     0.43610
C1627       C  0.60469531  0.17039671  0.20936278    -0.05460
C1628       C  0.62331391  0.16390581  0.16800996    -0.32890
C1629       C  0.60775052  0.14806347  0.12863666     0.36360
C1630       C  0.57264537  0.13846394  0.12973800    -0.05810
C1631       C  0.55371072  0.14334336  0.17182344    -0.32780
C1632       C  0.56934325  0.15877163  0.21139394     0.36270
H1633       H  0.65031275  0.17122431  0.16594946     0.16640
O1634       O  0.62701713  0.14069538  0.09008513    -0.60280
H1635       H  0.52659317  0.13542039  0.17405881     0.16660
O1636       O  0.54997690  0.16379105  0.25118955    -0.60380
H1637       H  0.54313011  0.13624116  0.27089892     0.43650
H1638       H  0.64223873  0.17018320  0.07529076     0.43610
C1639       C  0.81716856  0.41114836  0.21917061    -0.05460
C1640       C  0.81791777  0.44540626  0.18945550    -0.32890
C1641       C  0.83353130  0.45172296  0.14217568     0.36360
C1642       C  0.84936243  0.42392589  0.12339651    -0.05810
C1643       C  0.84819494  0.38937305  0.15296391    -0.32780
C1644       C  0.83233981  0.38288260  0.19992890     0.36270
H1645       H  0.80556213  0.46694444  0.20204045     0.16640
O1646       O  0.83192715  0.48412564  0.11420219    -0.60280
H1647       H  0.86012124  0.36738172  0.14003794     0.16660
O1648       O  0.83178483  0.34849232  0.22682843    -0.60380
H1649       H  0.81289550  0.32230556  0.21815816     0.43650
H1650       H  0.84548257  0.51221783  0.12707645     0.43610
C1651       C  0.89774549  0.07517024  0.80388773    -0.05460
C1652       C  0.88229170  0.06564372  0.85131851    -0.32890
C1653       C  0.90136821  0.06658855  0.88723754     0.36360
C1654       C  0.93682593  0.07738142  0.87653127    -0.05810
C1655       C  0.95223707  0.08672934  0.82910113    -0.32780
C1656       C  0.93319151  0.08577016  0.79318884     0.36270
H1657       H  0.85521469  0.05753220  0.86108501     0.16640
O1658       O  0.88503517  0.05757759  0.93279039    -0.60280
H1659       H  0.97926273  0.09464778  0.81927468     0.16660
O1660       O  0.94959467  0.09474496  0.74767170    -0.60380
H1661       H  0.96011281  0.12724433  0.74316293     0.43650
H1662       H  0.87510147  0.02508969  0.93751007     0.43610
C1663       C  0.65383124  0.06309219  0.88527713    -0.05460
C1664       C  0.64650901  0.03297586  0.84997843    -0.32890
C1665       C  0.66069965  0.04626516  0.80290700     0.36360
C1666       C  0.68256852  0.09018235  0.78960777    -0.05810
C1667       C  0.69006687  0.12038328  0.82482316    -0.32780
C1668       C  0.67591472  0.10713690  0.87210994     0.36270
H1669       H  0.62886187  0.99916441  0.85825967     0.16640
O1670       O  0.65303815  0.01590165  0.76981510    -0.60280
H1671       H  0.70778580  0.15412116  0.81619080     0.16660
O1672       O  0.68344031  0.13770632  0.90520487    -0.60380
H1673       H  0.70487348  0.13840591  0.91471663     0.43650
H1674       H  0.67222866  0.00615733  0.76578109     0.43610
C1675       C  0.90169266  0.31024481  0.79589422    -0.05460
C1676       C  0.88658198  0.33018786  0.82978033    -0.32890
C1677       C  0.90148773  0.34627187  0.86968553     0.36360
C1678       C  0.93179014  0.34191891  0.87676190    -0.05810
C1679       C  0.94662831  0.32140583  0.84326861    -0.32780
C1680       C  0.93171635  0.30526901  0.80334050     0.36270
H1681       H  0.86330437  0.33386839  0.82496617     0.16640
O1682       O  0.88658389  0.36703662  0.90090012    -0.60280
H1683       H  0.96967308  0.31726002  0.84843751     0.16660
O1684       O  0.94531594  0.28203780  0.77363065    -0.60380
H1685       H  0.96785981  0.30364698  0.75827426     0.43650
H1686       H  0.89749987  0.39850958  0.88980739     0.43610
C1687       C  0.76368441  0.00617754  0.54981301    -0.05460
C1688       C  0.73026755  0.47418167  0.55968320    -0.32890
C1689       C  0.71151643  0.45554758  0.52363662     0.36360
C1690       C  0.72592062  0.46910617  0.47589885    -0.05810
C1691       C  0.75976562  0.00030820  0.46604712    -0.32780
C1692       C  0.77864405  0.01850143  0.50225229     0.36270
H1693       H  0.71848124  0.46315330  0.59571802     0.16640
O1694       O  0.67966325  0.42280682  0.53592215    -0.60280
H1695       H  0.77164006  0.01110487  0.43000967     0.16660
O1696       O  0.81125632  0.04959031  0.49050783    -0.60380
H1697       H  0.82580791  0.03278820  0.48308939     0.43650
H1698       H  0.66479006  0.43767767  0.54960852     0.43610
C1699       C  0.98432843  0.22155276  0.55564302    -0.05460
C1700       C  0.50971271  0.26312501  0.54095841    -0.32890
C1701       C  0.52516345  0.27354365  0.49389111     0.36360
C1702       C  0.51566637  0.24179159  0.46002454    -0.05810
C1703       C  0.99041129  0.20019683  0.47464471    -0.32780
C1704       C  0.97440562  0.19006733  0.52153799     0.36270
H1705       H  0.51710218  0.28814419  0.56602093     0.16640
O1706       O  0.55017819  0.31467404  0.48187727    -0.60280
H1707       H  0.98258262  0.17565894  0.44929480     0.16660
O1708       O  0.94749287  0.15035485  0.53253583    -0.60380
H1709       H  0.95795683  0.12975534  0.53971037     0.43650
H1710       H  0.53781506  0.33367650  0.47703028     0.43610
C1711       C  0.77136052  0.24496035  0.53764006    -0.05460
C1712       C  0.78947470  0.26775429  0.49484932    -0.32890
C1713       C  0.77312971  0.26736558  0.45632964     0.36360
C1714       C  0.73750011  0.24343729  0.45962262    -0.05810
C1715       C  0.71921711  0.22021738  0.50253126    -0.32780
C1716       C  0.73576121  0.22102356  0.54134012     0.36270
H1717       H  0.81668091  0.28661094  0.49119446     0.16640
O1718       O  0.79264121  0.29041495  0.41571699    -0.60280
H1719       H  0.69183947  0.20168096  0.50625584     0.16660
O1720       O  0.71683615  0.19824945  0.58248164    -0.60380
H1721       H  0.71603073  0.16807405  0.57957413     0.43650
H1722       H  0.79468953  0.32103063  0.41951300     0.43610
C1723       C  0.80824915  0.16316227  0.88805179    -0.05460
C1724       C  0.83448085  0.20443549  0.89129367    -0.32890
C1725       C  0.85224725  0.21215929  0.92902858     0.36360
C1726       C  0.84400072  0.17832179  0.96344723    -0.05810
C1727       C  0.81672122  0.13779974  0.96133335    -0.32780
C1728       C  0.79900720  0.13000685  0.92355326     0.36270
H1729       H  0.84226863  0.23024260  0.86375330     0.16640
O1730       O  0.87863534  0.25198473  0.93090558    -0.60280
H1731       H  0.80890404  0.11224091  0.98910384     0.16660
O1732       O  0.77253267  0.09024706  0.92175548    -0.60380
H1733       H  0.78322250  0.07157219  0.90525718     0.43650
H1734       H  0.86771503  0.27118661  0.94555635     0.43610
C1735       C  0.81181177  0.15700915  0.38854172    -0.05460
C1736       C  0.84460133  0.15656568  0.37894095    -0.32890
C1737       C  0.86377821  0.16072327  0.41481602     0.36360
C1738       C  0.85004187  0.16559056  0.46034276    -0.05810
C1739       C  0.81701669  0.16526555  0.47010430    -0.32780
C1740       C  0.79776435  0.16092525  0.43428204     0.36270
H1741       H  0.85542333  0.15354181  0.34345854     0.16640
O1742       O  0.89633214  0.16214667  0.40469969    -0.60280
H1743       H  0.80625061  0.16839733  0.50558112     0.16660
O1744       O  0.76495208  0.15862137  0.44464715    -0.60380
H1745       H  0.76469819  0.18400808  0.42683689     0.43650
H1746       H  0.89593153  0.13631708  0.42247998     0.43610
C1747       C  0.92971013  0.08926952  0.37674902    -0.05460
C1748       C  0.89591343  0.05817321  0.38050367    -0.32890
C1749       C  0.87665801  0.05501401  0.34425572     0.36360
C1750       C  0.89122774  0.08293890  0.30298131    -0.05810
C1751       C  0.92496105  0.11418322  0.29942691    -0.32780
C1752       C  0.94404055  0.11767121  0.33589131     0.36270
H1753       H  0.88444570  0.03581997  0.41142648     0.16640
O1754       O  0.84405910  0.02333937  0.34881710    -0.60280
H1755       H  0.93639730  0.13684144  0.26873523     0.16660
O1756       O  0.97607155  0.15050761  0.33228480    -0.60380
H1757       H  0.99062591  0.14141028  0.30847651     0.43650
H1758       H  0.83019802  0.03357393  0.37260943     0.43610
C1759       C  0.67808615  0.10319755  0.29675470    -0.05460
C1760       C  0.65782914  0.05895615  0.31064671    -0.32890
C1761       C  0.64243440  0.04547864  0.35748653     0.36360
C1762       C  0.64717489  0.07660506  0.39223926    -0.05810
C1763       C  0.66800041  0.12063808  0.37853097    -0.32780
C1764       C  0.68350985  0.13399113  0.33185348     0.36270
H1765       H  0.65412211  0.03436045  0.28495941     0.16640
O1766       O  0.62270013  0.00178292  0.36832889    -0.60280
H1767       H  0.67194407  0.14517934  0.40427885     0.16660
O1768       O  0.70493735  0.17708777  0.32185640    -0.60380
H1769       H  0.68980560  0.19166786  0.31509035     0.43650
H1770       H  0.60145949  0.99592247  0.35510798     0.43610
C1771       C  0.89773714  0.32333074  0.30356481    -0.05460
C1772       C  0.87805859  0.31408932  0.34861064    -0.32890
C1773       C  0.89272972  0.33035247  0.38854968     0.36360
C1774       C  0.92798908  0.35639014  0.38453056    -0.05810
C1775       C  0.94775918  0.36580629  0.33945151    -0.32780
C1776       C  0.93302961  0.34972298  0.29932368     0.36270
H1777       H  0.85095162  0.29373662  0.35322834     0.16640
O1778       O  0.87225348  0.31963895  0.43138590    -0.60280
H1779       H  0.97485391  0.38624519  0.33499065     0.16660
O1780       O  0.95332519  0.36117329  0.25624918    -0.60380
H1781       H  0.96620606  0.34196350  0.25379414     0.43650
H1782       H  0.86086694  0.34057801  0.43383583     0.43610
C1783       C  0.75769808  0.02297590  0.04893558    -0.05460
C1784       C  0.72319781  0.01635597  0.05181195    -0.32890
C1785       C  0.70510523  0.49963213  0.01475091     0.36360
C1786       C  0.72125069  0.48903811  0.97332158    -0.05810
C1787       C  0.75600285  0.99645688  0.96989425    -0.32780
C1788       C  0.77425107  0.01352741  0.00704985     0.36270
H1789       H  0.70991874  0.02421913  0.08293213     0.16640
O1790       O  0.67164089  0.49449193  0.01929204    -0.60280
H1791       H  0.76899788  0.48833793  0.93862332     0.16660
O1792       O  0.80789047  0.01924773  0.00270525    -0.60380
H1793       H  0.82067149  0.04593376  0.98140575     0.43650
H1794       H  0.65884141  0.46702858  0.03937488     0.43610
C1795       C  0.98014143  0.23936417  0.05927743    -0.05460
C1796       C  0.97573855  0.26800023  0.02720206    -0.32890
C1797       C  0.99013136  0.27250377  0.97981056     0.36360
C1798       C  0.50943028  0.24831546  0.96284271    -0.05810
C1799       C  0.51414170  0.21990022  0.99503233    -0.32780
C1800       C  0.49992954  0.21560276  0.04269317     0.36270
H1801       H  0.96039826  0.28649159  0.03844308     0.16640
O1802       O  0.98541253  0.30115596  0.95024317    -0.60280
H1803       H  0.52979990  0.20185224  0.98401094     0.16660
O1804       O  0.50550896  0.18794653  0.07273118    -0.60380
H1805       H  0.52720406  0.20610011  0.08381484     0.43650
H1806       H  0.00398569  0.32990898  0.95351695     0.43610
C1807       C  0.73127261  0.25817740  0.96937607    -0.05460
C1808       C  0.71524772  0.25657484  0.01600276    -0.32890
C1809       C  0.73244360  0.25756201  0.05437905     0.36360
C1810       C  0.76636499  0.26031755  0.04674419    -0.05810
C1811       C  0.78196133  0.26117282  0.00010598    -0.32780
C1812       C  0.76494603  0.26025650  0.96193947     0.36270
H1813       H  0.68941701  0.25519091  0.02282411     0.16640
O1814       O  0.71619259  0.25715461  0.09898308    -0.60280
H1815       H  0.80751277  0.26188702  0.99259182     0.16660
O1816       O  0.78107573  0.25938064  0.91757386    -0.60380
H1817       H  0.79937795  0.28918916  0.91011157     0.43650
H1818       H  0.70160201  0.22582250  0.10806777     0.43610
C1819       C  0.86206384  0.68561588  0.00332925     0.42470
N1820       N  0.86656765  0.70622342  0.07277848     0.01360
C1821       C  0.83500190  0.57531522  0.27197615    -0.06520
H1822       H  0.73458401  0.53430016  0.15256659     0.06850
C1823       C  0.71909364  0.65912625  0.22834935    -0.06870
Co1824     Co  0.86203848  0.63354736  0.13692389     0.74180
N1825       N  0.78762940  0.57298548  0.15608360    -0.26050
Co1826     Co  0.78816922  0.60326877  0.21896455     0.74070
C1827       C  0.69780189  0.61428808  0.24805432     0.42570
N1828       N  0.79755712  0.74018921  0.15007116     0.00970
N1829       N  0.74615158  0.61708750  0.21055528     0.01080
N1830       N  0.88427711  0.60009426  0.22079615    -0.46900
H1831       H  0.86017974  0.61766111  0.02328036     0.06840
N1832       N  0.81591479  0.58316832  0.12565058     0.01360
N1833       N  0.78952296  0.63634097  0.27923481     0.01100
C1834       C  0.79286399  0.65305477  0.35008843     0.42710
N1835       N  0.82646733  0.75311208  0.12046400    -0.25510
C1836       C  0.93787688  0.68479685  0.12468185    -0.06430
N1837       N  0.86479474  0.71944333  0.03049104    -0.46610
N1838       N  0.78977972  0.62072558  0.32100335    -0.46830
C1839       C  0.95979053  0.73001201  0.10737569     0.42480
N1840       N  0.85899802  0.60366801  0.20199485     0.01350
N1841       N  0.86923353  0.77129560  0.19578305    -0.25530
N1842       N  0.86456216  0.66555120  0.07476051    -0.26020
N1843       N  0.84101235  0.76035967  0.22648639     0.00990
H1844       H  0.92206954  0.81110959  0.19877210     0.06880
H1845       H  0.79819452  0.72343275  0.33287773     0.06920
N1846       N  0.83018417  0.59058898  0.23176989    -0.26070
N1847       N  0.74905668  0.65827993  0.20910851    -0.25680
N1848       N  0.91055603  0.72662125  0.14224963     0.01360
C1849       C  0.77603151  0.54081058  0.08921485     0.42750
C1850       C  0.82198081  0.76829018  0.08008990    -0.06930
N1851       N  0.79262974  0.67750922  0.27860376    -0.25680
H1852       H  0.71619679  0.68902516  0.23802145     0.06900
N1853       N  0.80999573  0.56491350  0.08522159    -0.46900
H1854       H  0.84109076  0.77949830  0.04900803     0.06890
C1855       C  0.88058986  0.80390191  0.26269627     0.42590
C1856       C  0.86284040  0.65036508  0.03224031    -0.06430
Co1857     Co  0.86849310  0.74048002  0.13303169     0.73820
N1858       N  0.77238703  0.74371686  0.13062757    -0.46620
C1859       C  0.87093241  0.58195336  0.26505583     0.42850
N1860       N  0.94127933  0.75377087  0.12171077    -0.46610
Co1861     Co  0.79483715  0.71015256  0.21572033     0.73890
C1862       C  0.79458684  0.69086537  0.32221454    -0.06940
C1863       C  0.76114050  0.54610611  0.13659141    -0.06500
N1864       N  0.90772373  0.68544539  0.14342953    -0.26030
N1865       N  0.71586095  0.59029836  0.23275435    -0.46790
H1866       H  0.81647283  0.56481267  0.30365544     0.06860
C1867       C  0.89560453  0.79900182  0.21507812    -0.06910
Cl1868     Cl  0.82838545  0.67194781  0.17617734    -0.49910
C1869       C  0.78594943  0.76128010  0.08602871     0.42620
H1870       H  0.94052657  0.65541529  0.11214617     0.06830
N1871       N  0.84681045  0.77866852  0.26679607    -0.46630
C1872       C  0.78194026  0.52692079  0.58935446     0.42470
N1873       N  0.82147522  0.57078865  0.62515923     0.01360
C1874       C  0.79457872  0.68771397  0.81280602    -0.06520
H1875       H  0.72036148  0.67637777  0.73464195     0.06850
C1876       C  0.82689992  0.75228930  0.57032012    -0.06870
Co1877     Co  0.79373242  0.59402183  0.71738857     0.74180
N1878       N  0.75377243  0.64706473  0.70294508    -0.26050
Co1879     Co  0.79933386  0.70003183  0.70730586     0.74070
C1880       C  0.79082029  0.74502377  0.57626462     0.42570
N1881       N  0.87292163  0.69240745  0.56806323     0.00970
N1882       N  0.80263869  0.72662437  0.64084333     0.01080
N1883       N  0.79352752  0.61928361  0.82015808    -0.46900
H1884       H  0.74027345  0.52100164  0.65214621     0.06840
N1885       N  0.75166042  0.60620898  0.70527764     0.01360
N1886       N  0.84527394  0.75122751  0.71736460     0.01100
C1887       C  0.88477803  0.79300149  0.75455469     0.42710
N1888       N  0.87018399  0.65148259  0.57102834    -0.25510
C1889       C  0.84122216  0.57058558  0.77397157    -0.06430
N1890       N  0.81570844  0.55192280  0.58502888    -0.46610
N1891       N  0.85075478  0.77014272  0.75751077    -0.46830
C1892       C  0.87690466  0.57556823  0.76670304     0.42480
N1893       N  0.79462933  0.63099467  0.77601502     0.01350
N1894       N  0.91269733  0.67326733  0.64212390    -0.25530
N1895       N  0.79327641  0.56069785  0.65575484    -0.26020
N1896       N  0.91592698  0.71442763  0.63725678     0.00990
H1897       H  0.94564920  0.64084109  0.61883972     0.06880
H1898       H  0.92698782  0.79695786  0.69342674     0.06920
N1899       N  0.79610790  0.67124182  0.77111333    -0.26070
N1900       N  0.83164918  0.73898683  0.61153335    -0.25680
N1901       N  0.86420731  0.59356341  0.70214238     0.01360
C1902       C  0.70258807  0.60188674  0.74140928     0.42750
C1903       C  0.86878206  0.63628940  0.52819392    -0.06930
N1904       N  0.87391446  0.76002509  0.68801117    -0.25680
H1905       H  0.84562989  0.76203852  0.53879170     0.06900
N1906       N  0.72140623  0.57877409  0.72668574    -0.46900
H1907       H  0.86603154  0.60355726  0.51940976     0.06890
C1908       C  0.96457582  0.71483765  0.60392348     0.42590
C1909       C  0.76691632  0.53269357  0.63658106    -0.06430
Co1910     Co  0.86729232  0.62121734  0.63551883     0.73820
N1911       N  0.87265909  0.70598890  0.52536822    -0.46620
C1912       C  0.79364344  0.65377877  0.84512381     0.42850
N1913       N  0.88946755  0.59013754  0.72117472    -0.46610
Co1914     Co  0.87388266  0.72771698  0.62651270     0.73890
C1915       C  0.90026436  0.78643057  0.70814606    -0.06940
C1916       C  0.72361025  0.64710780  0.72292975    -0.06500
N1917       N  0.83594303  0.58312815  0.73262743    -0.26030
N1918       N  0.77733624  0.72891142  0.62102811    -0.46790
H1919       H  0.79535058  0.72016350  0.81939664     0.06860
C1920       C  0.94278459  0.67126407  0.62608355    -0.06910
Cl1921     Cl  0.83356092  0.66068598  0.67172135    -0.49910
C1922       C  0.86989282  0.67238124  0.49817015     0.42620
H1923       H  0.82292311  0.56200459  0.80593655     0.06830
N1924       N  0.94660454  0.73990044  0.61492232    -0.46630
C1925       C  0.71873387  0.74397694  0.42014977     0.42470
N1926       N  0.67805912  0.74760283  0.38665666     0.01360
C1927       C  0.69994778  0.88585882  0.19650968    -0.06520
H1928       H  0.77759714  0.95637999  0.27601998     0.06850
C1929       C  0.67031904  0.92230987  0.44025149    -0.06870
Co1930     Co  0.70495604  0.79845024  0.29435598     0.74180
N1931       N  0.74489145  0.89260095  0.30690920    -0.26050
Co1932     Co  0.69901113  0.89857062  0.30268668     0.74070
C1933       C  0.70648811  0.95077783  0.43633559     0.42570
N1934       N  0.62579956  0.81663893  0.44351625     0.00970
N1935       N  0.69575802  0.92218881  0.37003460     0.01080
N1936       N  0.70178544  0.81880412  0.19294740    -0.46900
H1937       H  0.75870705  0.77983490  0.35489406     0.06840
N1938       N  0.74732980  0.85412215  0.30420661     0.01360
N1939       N  0.65286683  0.90276553  0.29233288     0.01100
C1940       C  0.61293914  0.90362701  0.25499499     0.42710
N1941       N  0.62929954  0.77893617  0.44093305    -0.25510
C1942       C  0.65880690  0.72406849  0.24075243    -0.06430
N1943       N  0.68472423  0.73402482  0.42585973    -0.46610
N1944       N  0.64703324  0.91544899  0.25196460    -0.46830
C1945       C  0.62345090  0.69251830  0.24775743     0.42480
N1946       N  0.70316690  0.83259298  0.23564378     0.01350
N1947       N  0.58538346  0.75649107  0.37305613    -0.25530
N1948       N  0.70587030  0.76665252  0.35553280    -0.26020
N1949       N  0.58290830  0.79502455  0.37281598     0.00990
H1950       H  0.55251228  0.69443754  0.40840041     0.06880
H1951       H  0.57133015  0.86586879  0.31756766     0.06920
N1952       N  0.70137998  0.87128289  0.23882307    -0.26070
N1953       N  0.66643952  0.90495084  0.39866711    -0.25680
N1954       N  0.63436773  0.72607706  0.31107833     0.01360
C1955       C  0.79599731  0.90042632  0.26707733     0.42750
C1956       C  0.63103240  0.76531172  0.48363536    -0.06930
N1957       N  0.62440312  0.88275235  0.32205690    -0.25680
H1958       H  0.65039225  0.91327349  0.47028578     0.06900
N1959       N  0.77743679  0.85793787  0.28160286    -0.46900
H1960       H  0.63465752  0.73590461  0.49227671     0.06890
C1961       C  0.53426997  0.75030432  0.41095839     0.42590
C1962       C  0.73268601  0.76532193  0.37287123    -0.06430
Co1963     Co  0.63156838  0.75102174  0.37754954     0.73820
N1964       N  0.62557107  0.83023953  0.48636294    -0.46620
C1965       C  0.69945381  0.85059079  0.16636546     0.42850
N1966       N  0.60965278  0.69574175  0.29225229    -0.46610
Co1967     Co  0.62465982  0.85071697  0.38383580     0.73890
C1968       C  0.59790269  0.88219055  0.30209319    -0.06940
C1969       C  0.77481986  0.92374690  0.28674170    -0.06500
N1970       N  0.66299234  0.74381939  0.28104284    -0.26030
N1971       N  0.72064102  0.94938178  0.39134260    -0.46790
H1972       H  0.69714610  0.91600570  0.18866723     0.06860
C1973       C  0.55539266  0.72618394  0.39429524    -0.06910
Cl1974     Cl  0.66504898  0.82464015  0.33959715    -0.49910
C1975       C  0.62870573  0.79958588  0.51360781     0.42620
H1976       H  0.67758724  0.73301302  0.20924642     0.06830
N1977       N  0.55260099  0.79199398  0.39370410    -0.46630
C1978       C  0.71304992  0.75864604  0.92908592     0.42470
N1979       N  0.67310105  0.76020691  0.89239127     0.01360
C1980       C  0.69442638  0.89488172  0.69929053    -0.06520
H1981       H  0.77155541  0.97002817  0.78792548     0.06850
C1982       C  0.66576982  0.93682712  0.94197122    -0.06870
Co1983     Co  0.70089537  0.81026788  0.79950459     0.74180
N1984       N  0.73914850  0.90458292  0.81231837    -0.26050
Co1985     Co  0.69323083  0.90959312  0.80572452     0.74070
C1986       C  0.70147173  0.96776889  0.93532129     0.42570
N1987       N  0.62061561  0.82916857  0.94700864     0.00970
N1988       N  0.68998293  0.93509921  0.87156245     0.01080
N1989       N  0.69974641  0.82986599  0.69701812    -0.46900
H1990       H  0.75446856  0.79568429  0.86602163     0.06840
N1991       N  0.74258345  0.86676657  0.80915167     0.01360
N1992       N  0.64698410  0.91250402  0.79512453     0.01100
C1993       C  0.60733531  0.91678946  0.76006972     0.42710
N1994       N  0.62338340  0.79101691  0.94462811    -0.25510
C1995       C  0.65483687  0.73730559  0.74445439    -0.06430
N1996       N  0.67906901  0.74816714  0.93297753    -0.46610
N1997       N  0.64103475  0.92554284  0.75515699    -0.46830
C1998       C  0.61876276  0.70807038  0.74953869     0.42480
N1999       N  0.69947102  0.84366171  0.73977242     0.01350
N2000       N  0.58085271  0.76808695  0.87529319    -0.25530
N2001       N  0.70139828  0.77915230  0.86199256    -0.26020
N2002       N  0.57766164  0.80616038  0.87745821     0.00990
H2003       H  0.54888345  0.70398236  0.90597134     0.06880
H2004       H  0.56595717  0.88112622  0.82364302     0.06920
N2005       N  0.69609158  0.88145966  0.74217728    -0.26070
N2006       N  0.66122759  0.91771308  0.90133050    -0.25680
N2007       N  0.63013252  0.73818183  0.81483786     0.01360
C2008       C  0.79120429  0.91515151  0.77414601     0.42750
C2009       C  0.62341955  0.77650175  0.98765972    -0.06930
N2010       N  0.61883323  0.89414611  0.82582946    -0.25680
H2011       H  0.64702339  0.92718494  0.97340208     0.06900
N2012       N  0.77325722  0.87211915  0.78721947    -0.46900
H2013       H  0.62615488  0.74649417  0.99640092     0.06890
C2014       C  0.52940220  0.75879732  0.91437136     0.42590
C2015       C  0.72792200  0.77933281  0.88162801    -0.06430
Co2016     Co  0.62675208  0.76312970  0.88124907     0.73820
N2017       N  0.61960120  0.84247126  0.98992138    -0.46620
C2018       C  0.69661902  0.86039097  0.66958448     0.42850
N2019       N  0.60498814  0.71041789  0.79436940    -0.46610
Co2020     Co  0.61941874  0.86268277  0.88757936     0.73890
C2021       C  0.59244196  0.89567514  0.80723857    -0.06940
C2022       C  0.76910273  0.93691357  0.79500416    -0.06500
N2023       N  0.65919229  0.75533894  0.78565756    -0.26030
N2024       N  0.71500539  0.96452091  0.89073555    -0.46790
H2025       H  0.69093373  0.92428719  0.69018566     0.06860
C2026       C  0.55116339  0.73633084  0.89494830    -0.06910
Cl2027     Cl  0.66007420  0.83644205  0.84353411    -0.49910
C2028       C  0.62148329  0.81105160  0.01754466     0.42620
H2029       H  0.67392195  0.74700366  0.71334836     0.06830
N2030       N  0.54723110  0.80142783  0.89969207    -0.46630
C2031       C  0.94925581  0.86025114  0.91729779     0.42470
N2032       N  0.98926915  0.90203638  0.95364340     0.01360
C2033       C  0.46682792  0.51188481  0.14827528    -0.06520
H2034       H  0.89099911  0.00829273  0.06881264     0.06850
C2035       C  0.99383877  0.58432906  0.90626691    -0.06870
Co2036     Co  0.96205383  0.92227279  0.04738189     0.74180
N2037       N  0.92253928  0.97693969  0.03733544    -0.26050
Co2038     Co  0.96838798  0.52881204  0.04265891     0.74070
C2039       C  0.95777634  0.57746354  0.91370728     0.42570
N2040       N  0.54076291  0.52515855  0.89938982     0.00970
N2041       N  0.97081742  0.55782679  0.97712629     0.01080
N2042       N  0.46461901  0.94271914  0.15013913    -0.46900
H2043       H  0.90781643  0.85355295  0.98061768     0.06840
N2044       N  0.91951948  0.93572013  0.03938578     0.01360
N2045       N  0.51447065  0.57927977  0.05286071     0.01100
C2046       C  0.55474166  0.62130777  0.08891165     0.42710
N2047       N  0.53757071  0.98398930  0.90059260    -0.25510
C2048       C  0.50918894  0.89505044  0.09988243    -0.06430
N2049       N  0.98318764  0.88415906  0.91313622    -0.46610
N2050       N  0.52074737  0.59728359  0.09324845    -0.46830
C2051       C  0.54519381  0.90246498  0.09344437     0.42480
N2052       N  0.96421958  0.95659184  0.10746087     0.01350
N2053       N  0.58160308  0.50467022  0.96917676    -0.25530
N2054       N  0.96106348  0.89175367  0.98438036    -0.26020
N2055       N  0.58405861  0.54568467  0.96887241     0.00990
H2056       H  0.61523949  0.47582203  0.93745275     0.06880
H2057       H  0.59549674  0.62854246  0.02407502     0.06920
N2058       N  0.96624686  0.49728311  0.10537039    -0.26070
N2059       N  0.99930814  0.57031150  0.94671079    -0.25680
N2060       N  0.53326307  0.92328808  0.02972551     0.01360
C2061       C  0.87087990  0.93348602  0.07579910     0.42750
C2062       C  0.03557283  0.97003637  0.85722563    -0.06930
N2063       N  0.54249633  0.58965521  0.02195169    -0.25680
H2064       H  0.01222359  0.59479064  0.87443554     0.06900
N2065       N  0.88908509  0.90923700  0.06166207    -0.46900
H2066       H  0.03193818  0.93731453  0.84709167     0.06890
C2067       C  0.63344868  0.55055777  0.93323530     0.42590
C2068       C  0.93439634  0.86528373  0.96474836    -0.06430
Co2069     Co  0.53565114  0.95234244  0.96368983     0.73820
N2070       N  0.04069764  0.54026779  0.85726995    -0.46620
C2071       C  0.46583307  0.47579752  0.17772338     0.42850
N2072       N  0.55870817  0.92047391  0.04904947    -0.46610
Co2073     Co  0.54184680  0.55875922  0.95955208     0.73890
C2074       C  0.56918901  0.61661695  0.04098537    -0.06940
C2075       C  0.89283673  0.97830559  0.05702768    -0.06500
N2076       N  0.50437412  0.90997901  0.05950365    -0.26030
N2077       N  0.94521930  0.56089978  0.95866749    -0.46790
H2078       H  0.46916907  0.54442498  0.15749838     0.06860
C2079       C  0.61193209  0.50484531  0.94985636    -0.06910
Cl2080     Cl  0.50197484  0.49045761  0.00330372    -0.49910
C2081       C  0.03741732  0.00746681  0.82865514     0.42620
H2082       H  0.49064882  0.88447165  0.13162158     0.06830
N2083       N  0.61460663  0.57352590  0.94859969    -0.46630
C2084       C  0.94460454  0.87508390  0.42604683     0.42470
N2085       N  0.98364869  0.91810860  0.46333696     0.01360
C2086       C  0.46212572  0.53358845  0.65291746    -0.06520
H2087       H  0.88254673  0.02413808  0.57605163     0.06850
C2088       C  0.98617885  0.59748458  0.40732392    -0.06870
Co2089     Co  0.95467586  0.94127174  0.55404862     0.74180
N2090       N  0.91504832  0.99468067  0.54234979    -0.26050
Co2091     Co  0.96102538  0.54760686  0.54621223     0.74070
C2092       C  0.95023408  0.59069591  0.41443718     0.42570
N2093       N  0.53334583  0.53849059  0.40480628     0.00970
N2094       N  0.96317760  0.57359846  0.47898285     0.01080
N2095       N  0.45605032  0.96298202  0.65564774    -0.46900
H2096       H  0.90224940  0.87095201  0.48764044     0.06840
N2097       N  0.91262707  0.95368042  0.54322814     0.01360
N2098       N  0.50712882  0.59933324  0.55480017     0.01100
C2099       C  0.54766375  0.64355810  0.58938093     0.42710
N2100       N  0.53211445  0.99833402  0.40935854    -0.25510
C2101       C  0.49985783  0.91485229  0.61025512    -0.06430
N2102       N  0.97848285  0.89902892  0.42326488    -0.46610
N2103       N  0.51367288  0.61896006  0.59438104    -0.46830
C2104       C  0.53549676  0.92060548  0.60536379     0.42480
N2105       N  0.95558719  0.97669996  0.61308670     0.01350
N2106       N  0.57459557  0.52264192  0.47870739    -0.25530
N2107       N  0.95494174  0.90879215  0.49261089    -0.26020
N2108       N  0.57686058  0.56345535  0.47427144     0.00990
H2109       H  0.60842391  0.49211229  0.45270369     0.06880
H2110       H  0.58793993  0.64807574  0.52466997     0.06920
N2111       N  0.95933161  0.51806975  0.61031284    -0.26070
N2112       N  0.99167978  0.58534461  0.44862652    -0.25680
N2113       N  0.52565035  0.94218176  0.54059568     0.01360
C2114       C  0.86407728  0.94938448  0.58146149     0.42750
C2115       C  0.03273842  0.98206280  0.36731708    -0.06930
N2116       N  0.53497565  0.60902977  0.52369434    -0.25680
H2117       H  0.00430572  0.60612411  0.37519490     0.06900
N2118       N  0.88252850  0.92620098  0.56523682    -0.46900
H2119       H  0.03135769  0.94947894  0.36007023     0.06890
C2120       C  0.62606619  0.56641465  0.43994726     0.42590
C2121       C  0.92887304  0.88150716  0.47261706    -0.06430
Co2122     Co  0.52925649  0.96941424  0.47372307     0.73820
N2123       N  0.03373768  0.55040277  0.36102324    -0.46620
C2124       C  0.46013170  0.49691270  0.68284065     0.42850
N2125       N  0.55010721  0.93807830  0.56108078    -0.46610
Co2126     Co  0.53434726  0.57527352  0.46296755     0.73890
C2127       C  0.56174752  0.63711495  0.54176168    -0.06940
C2128       C  0.88515231  0.99479410  0.56330353    -0.06500
N2129       N  0.49636015  0.92977101  0.56919210    -0.26030
N2130       N  0.93745039  0.57527712  0.45966406    -0.46790
H2131       H  0.46645995  0.56684844  0.66158737     0.06860
C2132       C  0.60493713  0.52198924  0.46087378    -0.06910
Cl2133     Cl  0.99485177  0.50845150  0.50927468    -0.49910
C2134       C  0.03375126  0.01646378  0.33543809     0.42620
H2135       H  0.48030275  0.90470502  0.64078512     0.06830
N2136       N  0.60722788  0.59012996  0.45221776    -0.46630
C2137       C  0.48032981  0.50225262  0.72003088    -0.05460
C2138       C  0.96455558  0.49715219  0.76655505    -0.32890
C2139       C  0.98300128  0.99738032  0.80237597     0.36360
C2140       C  0.01746925  0.00292052  0.79128209    -0.05810
C2141       C  0.53323824  0.50789116  0.74474136    -0.32780
C2142       C  0.51478702  0.50772219  0.70890544     0.36270
H2143       H  0.93792162  0.49232845  0.77499017     0.16640
O2144       O  0.96738686  0.99273868  0.84814476    -0.60280
H2145       H  0.55980811  0.51240748  0.73631504     0.16660
O2146       O  0.53028233  0.51198571  0.66311612    -0.60380
H2147       H  0.53905925  0.54378288  0.65386139     0.43650
H2148       H  0.95916744  0.96100955  0.85738122     0.43610
C2149       C  0.01654250  0.00603003  0.29508892    -0.05460
C2150       C  0.53574364  0.51577420  0.25028864    -0.32890
C2151       C  0.51917350  0.50457930  0.21141122     0.36360
C2152       C  0.48328025  0.48350942  0.21788999    -0.05810
C2153       C  0.96413944  0.97312060  0.26271593    -0.32780
C2154       C  0.98067965  0.98443936  0.30156406     0.36270
H2155       H  0.56338831  0.53191516  0.24555764     0.16640
O2156       O  0.53806071  0.51394038  0.16726770    -0.60280
H2157       H  0.93649506  0.95698348  0.26747222     0.16660
O2158       O  0.96178923  0.97404137  0.34570834    -0.60380
H2159       H  0.95678600  0.00015028  0.35386428     0.43650
H2160       H  0.54242564  0.54493099  0.15911137     0.43610
C2161       C  0.58924572  0.91936643  0.72070929    -0.05460
C2162       C  0.55399476  0.89463158  0.72452217    -0.32890
C2163       C  0.53644895  0.89407957  0.68715433     0.36360
C2164       C  0.55403829  0.91875846  0.64453803    -0.05810
C2165       C  0.58934464  0.94370504  0.64066988    -0.32780
C2166       C  0.60694025  0.94420466  0.67821548     0.36270
H2167       H  0.53979376  0.87466228  0.75627421     0.16640
O2168       O  0.50231148  0.86758310  0.69216834    -0.60280
H2169       H  0.60337061  0.96339807  0.60864353     0.16660
O2170       O  0.64130924  0.96970883  0.67323147    -0.60380
H2171       H  0.65255092  0.95378396  0.65267117     0.43650
H2172       H  0.49074476  0.88170732  0.71483673     0.43610
C2173       C  0.56614683  0.66139703  0.62990340    -0.05460
C2174       C  0.54731669  0.65852243  0.67497020    -0.32890
C2175       C  0.56368129  0.67260561  0.71443945     0.36360
C2176       C  0.59969257  0.69009459  0.70964611    -0.05810
C2177       C  0.61833890  0.69266309  0.66470930    -0.32780
C2178       C  0.60217435  0.67925540  0.62531899     0.36270
H2179       H  0.51963891  0.64504382  0.67984401     0.16640
O2180       O  0.54413464  0.66981314  0.75720474    -0.60280
H2181       H  0.64594822  0.70536821  0.65939715     0.16660
O2182       O  0.62222537  0.68316756  0.58277847    -0.60380
H2183       H  0.63275815  0.71505433  0.57356257     0.43650
H2184       H  0.53880203  0.64003685  0.77111971     0.43610
C2185       C  0.81239077  0.92712222  0.72610820    -0.05460
C2186       C  0.82644723  0.89797623  0.70650417    -0.32890
C2187       C  0.84164929  0.90318142  0.65920004     0.36360
C2188       C  0.84375326  0.93874915  0.62986850    -0.05810
C2189       C  0.82986994  0.96779404  0.64941074    -0.32780
C2190       C  0.81421168  0.96226953  0.69634691     0.36270
H2191       H  0.82494123  0.87009251  0.72773680     0.16640
O2192       O  0.85409786  0.87291967  0.64222224    -0.60280
H2193       H  0.83103794  0.99516633  0.62805796     0.16660
O2194       O  0.80005222  0.99110616  0.71173419    -0.60380
H2195       H  0.77659534  0.97855650  0.70376527     0.43650
H2196       H  0.87668575  0.88162094  0.65263466     0.43610
C2197       C  0.64552105  0.81228777  0.55437122    -0.05460
C2198       C  0.62767404  0.82082203  0.59479297    -0.32890
C2199       C  0.64455541  0.83810326  0.63237178     0.36360
C2200       C  0.67966941  0.84745110  0.62895977    -0.05810
C2201       C  0.69747850  0.83880351  0.58857930    -0.32780
C2202       C  0.68063037  0.82165243  0.55100384     0.36270
H2203       H  0.60073364  0.81417507  0.59711831     0.16640
O2204       O  0.62630005  0.84364401  0.67307973    -0.60280
H2205       H  0.72441758  0.84544167  0.58621831     0.16660
O2206       O  0.69897319  0.81624475  0.51035566    -0.60380
H2207       H  0.69763196  0.78591488  0.51395829     0.43650
H2208       H  0.62236996  0.87041010  0.66645129     0.43610
C2209       C  0.68052930  0.84051786  0.12718358    -0.05460
C2210       C  0.65562429  0.79794260  0.12574504    -0.32890
C2211       C  0.63453218  0.78848142  0.09162403     0.36360
C2212       C  0.63848731  0.82171075  0.05848182    -0.05810
C2213       C  0.66291451  0.86446502  0.06048441    -0.32780
C2214       C  0.68387586  0.87402282  0.09473754     0.36270
H2215       H  0.65190464  0.77212949  0.15165823     0.16640
O2216       O  0.60967248  0.74708157  0.09142293    -0.60280
H2217       H  0.66677570  0.89022988  0.03445725     0.16660
O2218       O  0.70836251  0.91566609  0.09524641    -0.60380
H2219       H  0.69565079  0.93383121  0.10706861     0.43650
H2220       H  0.62195180  0.72890191  0.07819676     0.43610
C2221       C  0.56423459  0.90160255  0.13252928    -0.05460
C2222       C  0.54790511  0.86959638  0.16984888    -0.32890
C2223       C  0.56309038  0.86991521  0.20986028     0.36360
C2224       C  0.59558241  0.90264147  0.21338096    -0.05810
C2225       C  0.61228307  0.93418073  0.17554479    -0.32780
C2226       C  0.59664725  0.93431228  0.13589983     0.36270
H2227       H  0.52294526  0.84412348  0.16817788     0.16640
O2228       O  0.54641073  0.83686159  0.24430010    -0.60280
H2229       H  0.63721928  0.95967506  0.17726403     0.16660
O2230       O  0.61253917  0.96779735  0.10181802    -0.60380
H2231       H  0.60685218  0.99250656  0.11374071     0.43650
H2232       H  0.52814524  0.84455260  0.26190837     0.43610
C2233       C  0.60469531  0.67039673  0.20936276    -0.05460
C2234       C  0.62331392  0.66390581  0.16800994    -0.32890
C2235       C  0.60775052  0.64806348  0.12863664     0.36360
C2236       C  0.57264537  0.63846396  0.12973798    -0.05810
C2237       C  0.55371073  0.64334341  0.17182341    -0.32780
C2238       C  0.56934326  0.65877168  0.21139391     0.36270
H2239       H  0.65031275  0.67122430  0.16594945     0.16640
O2240       O  0.62701713  0.64069536  0.09008512    -0.60280
H2241       H  0.52659318  0.63542045  0.17405878     0.16660
O2242       O  0.54997691  0.66379111  0.25118951    -0.60380
H2243       H  0.54313012  0.63624123  0.27089890     0.43650
H2244       H  0.64223873  0.67018318  0.07529074     0.43610
C2245       C  0.81716857  0.91114835  0.21917059    -0.05460
C2246       C  0.81791779  0.94540626  0.18945549    -0.32890
C2247       C  0.83353132  0.95172296  0.14217566     0.36360
C2248       C  0.84936244  0.92392588  0.12339649    -0.05810
C2249       C  0.84819494  0.88937303  0.15296388    -0.32780
C2250       C  0.83233980  0.88288258  0.19992886     0.36270
H2251       H  0.80556216  0.96694445  0.20204044     0.16640
O2252       O  0.83192718  0.98412566  0.11420217    -0.60280
H2253       H  0.86012123  0.86738169  0.14003791     0.16660
O2254       O  0.83178481  0.84849228  0.22682839    -0.60380
H2255       H  0.81289547  0.82230553  0.21815811     0.43650
H2256       H  0.84548261  0.01221784  0.12707645     0.43610
C2257       C  0.89774550  0.57517024  0.80388772    -0.05460
C2258       C  0.88229171  0.56564369  0.85131850    -0.32890
C2259       C  0.90136821  0.56658853  0.88723754     0.36360
C2260       C  0.93682594  0.57738143  0.87653128    -0.05810
C2261       C  0.95223709  0.58672938  0.82910114    -0.32780
C2262       C  0.93319153  0.58577019  0.79318885     0.36270
H2263       H  0.85521469  0.55753214  0.86108499     0.16640
O2264       O  0.88503515  0.55757754  0.93279038    -0.60280
H2265       H  0.97926274  0.59464785  0.81927470     0.16660
O2266       O  0.94959469  0.59474501  0.74767171    -0.60380
H2267       H  0.96011282  0.62724438  0.74316295     0.43650
H2268       H  0.87510146  0.52508964  0.93751004     0.43610
C2269       C  0.65383124  0.56309215  0.88527715    -0.05460
C2270       C  0.64650907  0.53297581  0.84997846    -0.32890
C2271       C  0.66069972  0.54626511  0.80290704     0.36360
C2272       C  0.68256853  0.59018231  0.78960780    -0.05810
C2273       C  0.69006683  0.62038326  0.82482318    -0.32780
C2274       C  0.67591468  0.60713688  0.87210996     0.36270
H2275       H  0.62886197  0.49916434  0.85825970     0.16640
O2276       O  0.65303828  0.51590158  0.76981515    -0.60280
H2277       H  0.70778572  0.65412116  0.81619081     0.16660
O2278       O  0.68344022  0.63770632  0.90520488    -0.60380
H2279       H  0.70487339  0.63840595  0.91471667     0.43650
H2280       H  0.67222880  0.50615727  0.76578123     0.43610
C2281       C  0.90169270  0.81024484  0.79589417    -0.05460
C2282       C  0.88658199  0.83018783  0.82978032    -0.32890
C2283       C  0.90148774  0.84627184  0.86968552     0.36360
C2284       C  0.93179019  0.84191896  0.87676185    -0.05810
C2285       C  0.94662840  0.82140595  0.84326852    -0.32780
C2286       C  0.93171643  0.80526912  0.80334042     0.36270
H2287       H  0.86330435  0.83386830  0.82496619     0.16640
O2288       O  0.88658386  0.86703652  0.90090015    -0.60280
H2289       H  0.96967318  0.81726019  0.84843739     0.16660
O2290       O  0.94531605  0.78203795  0.77363054    -0.60380
H2291       H  0.96785995  0.80364713  0.75827426     0.43650
H2292       H  0.89749981  0.89850949  0.88980746     0.43610
C2293       C  0.76368440  0.50617753  0.54981300    -0.05460
C2294       C  0.73026756  0.97418166  0.55968320    -0.32890
C2295       C  0.71151644  0.95554757  0.52363663     0.36360
C2296       C  0.72592064  0.96910616  0.47589885    -0.05810
C2297       C  0.75976561  0.50030820  0.46604712    -0.32780
C2298       C  0.77864404  0.51850143  0.50225229     0.36270
H2299       H  0.71848125  0.96315329  0.59571802     0.16640
O2300       O  0.67966327  0.92280679  0.53592215    -0.60280
H2301       H  0.77164005  0.51110487  0.43000966     0.16660
O2302       O  0.81125632  0.54959029  0.49050783    -0.60380
H2303       H  0.82580790  0.53278817  0.48308939     0.43650
H2304       H  0.66479007  0.93767764  0.54960853     0.43610
C2305       C  0.98432844  0.72155275  0.55564301    -0.05460
C2306       C  0.50971272  0.76312499  0.54095840    -0.32890
C2307       C  0.52516347  0.77354363  0.49389110     0.36360
C2308       C  0.51566638  0.74179159  0.46002453    -0.05810
C2309       C  0.99041130  0.70019683  0.47464468    -0.32780
C2310       C  0.97440563  0.69006733  0.52153797     0.36270
H2311       H  0.51710220  0.78814416  0.56602093     0.16640
O2312       O  0.55017821  0.81467402  0.48187727    -0.60280
H2313       H  0.98258263  0.67565894  0.44929477     0.16660
O2314       O  0.94749286  0.65035485  0.53253580    -0.60380
H2315       H  0.95795682  0.62975533  0.53971035     0.43650
H2316       H  0.53781508  0.83367648  0.47703029     0.43610
C2317       C  0.77136052  0.74496032  0.53764005    -0.05460
C2318       C  0.78947470  0.76775429  0.49484933    -0.32890
C2319       C  0.77312972  0.76736558  0.45632964     0.36360
C2320       C  0.73750012  0.74343728  0.45962262    -0.05810
C2321       C  0.71921711  0.72021735  0.50253125    -0.32780
C2322       C  0.73576121  0.72102353  0.54134011     0.36270
H2323       H  0.81668091  0.78661094  0.49119447     0.16640
O2324       O  0.79264121  0.79041497  0.41571700    -0.60280
H2325       H  0.69183948  0.70168092  0.50625582     0.16660
O2326       O  0.71683615  0.69824940  0.58248162    -0.60380
H2327       H  0.71603075  0.66807400  0.57957410     0.43650
H2328       H  0.79468953  0.82103064  0.41951303     0.43610
C2329       C  0.80824922  0.66316228  0.88805175    -0.05460
C2330       C  0.83448107  0.70443541  0.89129348    -0.32890
C2331       C  0.85224745  0.71215922  0.92902841     0.36360
C2332       C  0.84400075  0.67832180  0.96344722    -0.05810
C2333       C  0.81672112  0.63779985  0.96133348    -0.32780
C2334       C  0.79900711  0.63000696  0.92355338     0.36270
H2335       H  0.84226897  0.73024243  0.86375300     0.16640
O2336       O  0.87863567  0.75198456  0.93090529    -0.60280
H2337       H  0.80890383  0.61224110  0.98910409     0.16660
O2338       O  0.77253242  0.59024728  0.92175575    -0.60380
H2339       H  0.78322209  0.57157228  0.90525736     0.43650
H2340       H  0.86771549  0.77118655  0.94555612     0.43610
C2341       C  0.81181177  0.65700916  0.38854172    -0.05460
C2342       C  0.84460133  0.65656571  0.37894093    -0.32890
C2343       C  0.86377821  0.66072329  0.41481600     0.36360
C2344       C  0.85004186  0.66559054  0.46034275    -0.05810
C2345       C  0.81701668  0.66526551  0.47010430    -0.32780
C2346       C  0.79776434  0.66092522  0.43428205     0.36270
H2347       H  0.85542333  0.65354187  0.34345851     0.16640
O2348       O  0.89633215  0.66214672  0.40469966    -0.60280
H2349       H  0.80625059  0.66839726  0.50558113     0.16660
O2350       O  0.76495206  0.65862131  0.44464716    -0.60380
H2351       H  0.76469816  0.68400804  0.42683693     0.43650
H2352       H  0.89593155  0.63631713  0.42247992     0.43610
C2353       C  0.92971013  0.58926952  0.37674901    -0.05460
C2354       C  0.89591343  0.55817322  0.38050367    -0.32890
C2355       C  0.87665800  0.55501403  0.34425573     0.36360
C2356       C  0.89122774  0.58293890  0.30298131    -0.05810
C2357       C  0.92496105  0.61418322  0.29942690    -0.32780
C2358       C  0.94404055  0.61767121  0.33589130     0.36270
H2359       H  0.88444570  0.53581998  0.41142648     0.16640
O2360       O  0.84405909  0.52333939  0.34881711    -0.60280
H2361       H  0.93639730  0.63684143  0.26873522     0.16660
O2362       O  0.97607156  0.65050760  0.33228477    -0.60380
H2363       H  0.99062591  0.64141025  0.30847649     0.43650
H2364       H  0.83019802  0.53357396  0.37260944     0.43610
C2365       C  0.67808614  0.60319753  0.29675472    -0.05460
C2366       C  0.65782914  0.55895614  0.31064673    -0.32890
C2367       C  0.64243441  0.54547863  0.35748656     0.36360
C2368       C  0.64717489  0.57660506  0.39223929    -0.05810
C2369       C  0.66800041  0.62063807  0.37853099    -0.32780
C2370       C  0.68350984  0.63399112  0.33185350     0.36270
H2371       H  0.65412212  0.53436044  0.28495944     0.16640
O2372       O  0.62270015  0.50178291  0.36832892    -0.60280
H2373       H  0.67194406  0.64517934  0.40427886     0.16660
O2374       O  0.70493733  0.67708777  0.32185640    -0.60380
H2375       H  0.68980557  0.69166784  0.31509036     0.43650
H2376       H  0.60145950  0.49592245  0.35510803     0.43610
C2377       C  0.89773712  0.82333075  0.30356481    -0.05460
C2378       C  0.87805859  0.81408927  0.34861065    -0.32890
C2379       C  0.89272972  0.83035242  0.38854969     0.36360
C2380       C  0.92798907  0.85639015  0.38453055    -0.05810
C2381       C  0.94775916  0.86580636  0.33945148    -0.32780
C2382       C  0.93302958  0.84972305  0.29932366     0.36270
H2383       H  0.85095163  0.79373653  0.35322836     0.16640
O2384       O  0.87225351  0.81963885  0.43138591    -0.60280
H2385       H  0.97485388  0.88624530  0.33499062     0.16660
O2386       O  0.95332514  0.86117341  0.25624915    -0.60380
H2387       H  0.96620607  0.84196369  0.25379408     0.43650
H2388       H  0.86086694  0.84057788  0.43383589     0.43610
C2389       C  0.75769808  0.52297593  0.04893557    -0.05460
C2390       C  0.72319780  0.51635593  0.05181197    -0.32890
C2391       C  0.70510524  0.99963217  0.01475089     0.36360
C2392       C  0.72125069  0.98903810  0.97332159    -0.05810
C2393       C  0.75600287  0.49645698  0.96989421    -0.32780
C2394       C  0.77425109  0.51352752  0.00704980     0.36270
H2395       H  0.70991871  0.52421904  0.08293217     0.16640
O2396       O  0.67164093  0.99449205  0.01929198    -0.60280
H2397       H  0.76899785  0.98833777  0.93862339     0.16660
O2398       O  0.80789051  0.51924794  0.00270515    -0.60380
H2399       H  0.82067148  0.54593402  0.98140571     0.43650
H2400       H  0.65884140  0.96702869  0.03937481     0.43610
C2401       C  0.98014142  0.73936418  0.05927742    -0.05460
C2402       C  0.97573852  0.76800023  0.02720205    -0.32890
C2403       C  0.99013133  0.77250377  0.97981055     0.36360
C2404       C  0.50943026  0.74831546  0.96284271    -0.05810
C2405       C  0.51414168  0.71990023  0.99503232    -0.32780
C2406       C  0.49992952  0.71560276  0.04269316     0.36270
H2407       H  0.96039822  0.78649157  0.03844307     0.16640
O2408       O  0.98541249  0.80115595  0.95024317    -0.60280
H2409       H  0.52979989  0.70185225  0.98401093     0.16660
O2410       O  0.50550895  0.68794652  0.07273117    -0.60380
H2411       H  0.52720405  0.70610011  0.08381483     0.43650
H2412       H  0.00398566  0.82990897  0.95351693     0.43610
C2413       C  0.73127259  0.75817739  0.96937607    -0.05460
C2414       C  0.71524771  0.75657484  0.01600275    -0.32890
C2415       C  0.73244359  0.75756200  0.05437904     0.36360
C2416       C  0.76636497  0.76031753  0.04674418    -0.05810
C2417       C  0.78196131  0.76117280  0.00010597    -0.32780
C2418       C  0.76494601  0.76025647  0.96193946     0.36270
H2419       H  0.68941699  0.75519092  0.02282410     0.16640
O2420       O  0.71619258  0.75715461  0.09898307    -0.60280
H2421       H  0.80751275  0.76188698  0.99259181     0.16660
O2422       O  0.78107570  0.75938060  0.91757385    -0.60380
H2423       H  0.79937793  0.78918912  0.91011155     0.43650
H2424       H  0.70160199  0.72582251  0.10806776     0.43610
loop_ 
_geom_bond_atom_site_label_1 
_geom_bond_atom_site_label_2 
_geom_bond_distance 
_geom_bond_site_symmetry_2 
_ccdc_geom_bond_type 
C1           N19   1.347       .  A
C1           C38   1.449       .  S
C1          C514   1.450   1_554  S
N2           N19   1.319       .  A
N2           N24   1.318       .  A
N2          Co39   2.073       .  S
C3           N28   1.340       .  A
C3           C41   1.458       .  S
C3           H48   1.079       .  S
H4           C45   1.081       .  S
C5           N29   1.340       .  A
C5            C9   1.467       .  S
C5           H34   1.079       .  S
Co6          N24   2.051       .  S
Co6          N14   2.105       .  S
Co6          N46   2.079       .  S
Co6          N22   2.085       .  S
Co6         Cl50   2.446       .  S
N7           C45   1.343       .  A
N7           N14   1.318       .  A
N7           Co8   2.075       .  S
Co8          N11   2.078       .  S
Co8          N28   2.091       .  S
Co8          N15   2.054       .  S
Co8         Cl50   2.448       .  S
C9           N47   1.349       .  A
C9          C547   1.497       .  S
N10          N17   1.318       .  A
N10          N40   1.333       .  A
N10         Co43   2.106       .  S
N11          N29   1.322       .  A
N11          N47   1.323       .  A
N12          C41   1.356       .  A
N12          N22   1.328       .  A
H13          C38   1.081       .  S
N14          N35   1.327       .  A
N15          N33   1.318       .  A
N15          N20   1.315       .  A
C16          N20   1.340       .  A
C16          C44   1.460       .  S
C16         C523   1.447       .  S
N17          C32   1.337       .  A
N17         Co39   2.089       .  S
C18          N46   1.341       .  A
C18          C21   1.463       .  S
C18          H52   1.082       .  S
C21          N42   1.351       .  A
C21         C583   1.492       .  S
N22          N28   1.317       .  A
N23          C49   1.346       .  A
N23          N25   1.318       .  A
N23         Co39   2.080       .  S
N24          C38   1.329       .  A
N25          N53   1.324       .  A
N25         Co43   2.100       .  S
H26          C49   1.080       .  S
H27          C44   1.081       .  S
N29         Co43   2.082       .  S
N30          N42   1.323       .  A
N30          N46   1.322       .  A
N30         Co39   2.086       .  S
C31          N35   1.351       .  A
C31          C45   1.466       .  S
C31         C571   1.492       .  S
C32          C51   1.459       .  S
C32          H36   1.080       .  S
N33          C44   1.339       .  A
N33         Co43   2.083       .  S
C37          N53   1.351       .  A
C37          C49   1.470       .  S
C37         C559   1.495       .  S
Co39        Cl50   2.448       .  S
N40          C51   1.361       .  A
C41         C538   1.489       .  S
Co43        Cl50   2.441       .  S
C51         C598   1.501       .  S
C54          N72   1.349       .  A
C54          C91   1.469       .  S
C54         C475   1.494       .  S
N55          N72   1.327       .  A
N55          N77   1.318       .  A
N55         Co92   2.089       .  S
C56          N81   1.326       .  A
C56          C94   1.445       .  S
C56         H101   1.082       .  S
H57          C98   1.082       .  S
C58          N82   1.338       .  A
C58          C62   1.459       .  S
C58          H87   1.080       .  S
Co59         N77   2.095       .  S
Co59         N67   2.079       .  S
Co59         N99   2.091       .  S
Co59         N75   2.088       .  S
Co59       Cl103   2.436       .  S
N60          C98   1.343       .  A
N60          N67   1.323       .  A
N60         Co61   2.079       .  S
Co61         N64   2.073       .  S
Co61         N81   2.035       .  S
Co61         N68   2.101       .  S
Co61       Cl103   2.450       .  S
C62         N100   1.353       .  A
C62         C499   1.488       .  S
N63          N70   1.317       .  A
N63          N93   1.315       .  A
N63         Co96   2.052       .  S
N64          N82   1.318       .  A
N64         N100   1.328       .  A
N65          C94   1.352       .  A
N65          N75   1.321       .  A
H66          C91   1.082       .  S
N67          N88   1.320       .  A
N68          N86   1.319       .  A
N68          N73   1.326       .  A
C69          N73   1.349       .  A
C69          C97   1.464       .  S
C69         C463   1.486       .  S
N70          C85   1.337       .  A
N70         Co92   2.078       .  S
C71          N99   1.342       .  A
C71          C74   1.463       .  S
C71         H105   1.080       .  S
C74          N95   1.357       .  A
C74         C439   1.498       .  S
N75          N81   1.317       .  A
N76         C102   1.338       .  A
N76          N78   1.322       .  A
N76         Co92   2.074       .  S
N77          C91   1.347       .  A
N78         N106   1.323       .  A
N78         Co96   2.086       .  S
H79         C102   1.081       .  S
H80          C97   1.081       .  S
N82         Co96   2.096       .  S
N83          N95   1.329       .  A
N83          N99   1.317       .  A
N83         Co92   2.094       .  S
C84          N88   1.346       .  A
C84          C98   1.465       .  S
C84         C454   1.490       .  S
C85         C104   1.458       .  S
C85          H89   1.080       .  S
N86          C97   1.344       .  A
N86         Co96   2.075       .  S
C90         N106   1.351       .  A
C90         C102   1.462       .  S
C90         C487   1.491       .  S
Co92       Cl103   2.443       .  S
N93         C104   1.341       .  A
C94         C511   1.450       .  S
Co96       Cl103   2.443       .  S
C104        C526   1.447       .  S
C107        N125   1.353       .  A
C107        C144   1.467       .  S
C107        C502   1.493       .  S
N108        N125   1.326       .  A
N108        N130   1.317       .  A
N108       Co145   2.102       .  S
C109        N134   1.332       .  A
C109        C147   1.454       .  S
C109        H154   1.080       .  S
H110        C151   1.081       .  S
C111        N135   1.336       .  A
C111        C115   1.458       .  S
C111        H140   1.077       .  S
Co112       N130   2.069       .  S
Co112       N120   2.081       .  S
Co112       N152   2.082       .  S
Co112       N128   2.064       .  S
Co112      Cl156   2.437       .  S
N113        C151   1.343       .  A
N113        N120   1.322       .  A
N113       Co114   2.081       .  S
Co114       N117   2.104       .  S
Co114       N134   2.062       .  S
Co114       N121   2.108       .  S
Co114      Cl156   2.453       .  S
C115        N153   1.362       .  A
C115        C478   1.502       .  S
N116        N123   1.318       .  A
N116        N146   1.318       .  A
N116       Co149   2.076       .  S
N117        N135   1.317       .  A
N117        N153   1.332       .  A
N118        C147   1.346       .  A
N118        N128   1.317       .  A
H119        C144   1.079       .  S
N120        N141   1.322       .  A
N121        N139   1.317       .  A
N121        N126   1.328       .  A
C122        N126   1.352       .  A
C122        C150   1.468       .  S
C122        C406   1.498       .  S
N123        C138   1.334       .  A
N123       Co145   2.059       .  S
C124        N152   1.336       .  A
C124        C127   1.454       .  S
C124        H158   1.081       .  S
C127        N148   1.358       .  A
C127        C415   1.489       .  S
N128        N134   1.318       .  A
N129        C155   1.344       .  A
N129        N131   1.323       .  A
N129       Co145   2.088       .  S
N130        C144   1.339       .  A
N131        N159   1.321       .  A
N131       Co149   2.076       .  S
H132        C155   1.082       .  S
H133        C150   1.081       .  S
N135       Co149   2.084       .  S
N136        N148   1.330       .  A
N136        N152   1.318       .  A
N136       Co145   2.097       .  S
C137        N141   1.349       .  A
C137        C151   1.468       .  S
C137        C427   1.500       .  S
C138        C157   1.456       .  S
C138        H142   1.080       .  S
N139        C150   1.344       .  A
N139       Co149   2.078       .  S
C143        N159   1.346       .  A
C143        C155   1.464       .  S
C143        C490   1.491       .  S
Co145      Cl156   2.453       .  S
N146        C157   1.344       .  A
C147        C391   1.452       .  S
Co149      Cl156   2.438       .  S
C157        C379   1.448       .  S
C160        N178   1.352       .  A
C160        C197   1.469       .  S
C160        C595   1.497       .  S
N161        N178   1.328       .  A
N161        N183   1.319       .  A
N161       Co198   2.105       .  S
C162        N187   1.336       .  A
C162        C200   1.455       .  S
C162        H207   1.081       .  S
H163        C204   1.077       .  S
C164        N188   1.337       .  A
C164        C168   1.460       .  S
C164        H193   1.078       .  S
Co165       N183   2.084       .  S
Co165       N173   2.079       .  S
Co165       N205   2.086       .  S
Co165       N181   2.069       .  S
Co165      Cl209   2.452       .  S
N166        C204   1.338       .  A
N166        N173   1.321       .  A
N166       Co167   2.083       .  S
Co167       N170   2.091       .  S
Co167       N187   2.070       .  S
Co167       N174   2.096       .  S
Co167      Cl209   2.437       .  S
C168        N206   1.357       .  A
C168        C574   1.493       .  S
N169        N176   1.317       .  A
N169        N199   1.316       .  A
N169       Co202   2.060       .  S
N170        N188   1.317       .  A
N170        N206   1.330       .  A
N171        C200   1.343       .  A
N171        N181   1.317       .  A
H172        C197   1.081       .  S
N173        N194   1.323       .  A
N174        N192   1.317       .  A
N174        N179   1.325       .  A
C175        N179   1.349       .  A
C175        C203   1.466       .  S
C175        C343   1.488       .  S
N176        C191   1.332       .  A
N176       Co198   2.064       .  S
C177        N205   1.337       .  A
C177        C180   1.459       .  S
C177        H211   1.079       .  S
C180        N201   1.359       .  A
C180        C358   1.499       .  S
N181        N187   1.318       .  A
N182        C208   1.341       .  A
N182        N184   1.323       .  A
N182       Co198   2.077       .  S
N183        C197   1.344       .  A
N184        N212   1.322       .  A
N184       Co202   2.084       .  S
H185        C208   1.081       .  S
H186        C203   1.081       .  S
N188       Co202   2.089       .  S
N189        N201   1.332       .  A
N189        N205   1.317       .  A
N189       Co198   2.098       .  S
C190        N194   1.351       .  A
C190        C204   1.471       .  S
C190        C367   1.504       .  S
C191        C210   1.457   1_556  S
C191        H195   1.080       .  S
N192        C203   1.343       .  A
N192       Co202   2.072       .  S
C196        N212   1.349       .  A
C196        C208   1.464       .  S
C196        C586   1.495       .  S
Co198      Cl209   2.442       .  S
N199        C210   1.345   1_556  A
C200        C382   1.448       .  S
Co202      Cl209   2.448       .  S
C210        C394   1.451       .  S
C213        N231   1.349       .  A
C213        C250   1.465       .  S
C213        C466   1.484       .  S
N214        N231   1.326       .  A
N214        N236   1.320       .  A
N214      Co1463   2.101       .  S
C215       N1452   1.331   1_545  A
C215        C253   1.450   1_545  S
C215        H260   1.081       .  S
H216        C257   1.080       .  S
C217        N241   1.341       .  A
C217        C221   1.461       .  S
C217        H246   1.079       .  S
Co218       N236   2.081   1_554  S
Co218       N226   2.090       .  S
Co218       N234   2.070       .  S
Co218      N1470   2.091       .  S
Co218     Cl2080   2.449       .  S
N219        C257   1.340       .  A
N219        N226   1.322       .  A
N219       Co826   2.075       .  S
Co220       N223   2.091   1_554  S
Co220       N240   2.061   1_545  S
Co220       N825   2.075   1_545  S
Co220      N1439   2.096       .  S
Co220     Cl1474   2.444   1_545  S
C221        N259   1.357       .  A
C221        C442   1.498       .  S
N222        N835   1.317   1_545  A
N222       N1464   1.315       .  A
N222       Co255   2.062       .  S
N223        N241   1.318       .  A
N223        N259   1.329       .  A
N224        C859   1.346       .  A
N224       N1446   1.319       .  A
H225        C250   1.082       .  S
N226        N247   1.325       .  A
N227        N245   1.316       .  A
N227        N232   1.325       .  A
N227      Co1432   2.096   1_455  S
C228        N232   1.351       .  A
C228        C256   1.468       .  S
C228        C418   1.493       .  S
N229       C1456   1.338       .  A
N229        N828   1.317       .  A
N229       Co251   2.076       .  S
C230        N258   1.340       .  A
C230        C233   1.454       .  S
C230        H264   1.081   1_455  S
C233        N254   1.359       .  A
C233        C403   1.494       .  S
N234       N1436   1.319       .  A
N234        N846   1.318       .  A
N235        C261   1.341       .  A
N235        N237   1.322       .  A
N235       Co857   2.086   1_545  S
N236        C250   1.345       .  A
N237        N265   1.322       .  A
N237       Co255   2.079       .  S
H238        C261   1.081   1_565  S
H239        C256   1.080       .  S
N240       C1427   1.331   1_565  A
N240        N840   1.318       .  A
N241      Co1467   2.094       .  S
N242        N254   1.333       .  A
N242        N258   1.319       .  A
N242       Co251   2.106   1_554  S
C243        N247   1.353       .  A
C243        C257   1.464       .  S
C243        C430   1.499       .  S
C244       N1441   1.338       .  A
C244        C263   1.459       .  S
C244        H248   1.081       .  S
N245        C256   1.342       .  A
N245       Co255   2.073   1_554  S
C249        N265   1.348       .  A
C249        C261   1.468       .  S
C249        C451   1.490       .  S
Co251      N1426   2.101   1_455  S
Co251       N841   2.086       .  S
Co251      Cl868   2.443   1_556  S
N252        C869   1.343       .  A
N252       N1434   1.315       .  A
C253        N830   1.346       .  A
C253        C334   1.441       .  S
Co255      N1453   2.094   1_455  S
Co255      Cl262   2.447   1_546  S
N258      Co1430   2.091   1_455  S
Cl262     Co2036   2.449   1_455  S
Cl262     Co1432   2.444   1_465  S
Cl262      Co857   2.443   1_554  S
C263        N858   1.343       .  A
C263        C322   1.446       .  S
C266        N284   1.350       .  A
C266        C303   1.471       .  S
C266        C562   1.495       .  S
N267        N284   1.325       .  A
N267        N289   1.317       .  A
N267      Co1516   2.096       .  S
C268       N1505   1.338       .  A
C268        C306   1.458   1_545  S
C268        H313   1.080       .  S
H269        C310   1.082       .  S
C270        N294   1.340       .  A
C270        C274   1.457       .  S
C270        H299   1.080       .  S
Co271       N289   2.078       .  S
Co271       N279   2.071       .  S
Co271       N287   2.068       .  S
Co271      N1523   2.078       .  S
Co271      Cl921   2.439       .  S
N272        C310   1.342       .  A
N272        N279   1.322       .  A
N272       Co879   2.087       .  S
Co273       N276   2.097       .  S
Co273       N293   2.071       .  S
Co273       N878   2.087   1_545  S
Co273      N1492   2.102       .  S
Co273      Cl315   2.446       .  S
C274        N312   1.356       .  A
C274        C535   1.487       .  S
N275        N888   1.317   1_545  A
N275       N1517   1.320       .  A
N275       Co308   2.073       .  S
N276        N294   1.319       .  A
N276        N312   1.330       .  A
N277        C912   1.342       .  A
N277       N1499   1.315       .  A
H278        C303   1.080       .  S
N279        N300   1.322       .  A
N280        N298   1.316       .  A
N280        N285   1.327       .  A
N280      Co1485   2.102   1_455  S
C281        N285   1.353       .  A
C281        C309   1.471       .  S
C281        C355   1.502       .  S
N282       C1509   1.330       .  A
N282        N881   1.317       .  A
N282       Co304   2.055       .  S
C283        N311   1.334       .  A
C283        C286   1.455   1_655  S
C283        H317   1.078       .  S
C286        N307   1.358       .  A
C286        C346   1.490       .  S
N287       N1489   1.315       .  A
N287        N899   1.318       .  A
N288        C314   1.341       .  A
N288        N290   1.323       .  A
N288       Co910   2.081   1_545  S
N289        C303   1.344       .  A
N290        N318   1.322       .  A
N290       Co308   2.084       .  S
H291        C314   1.080   1_565  S
H292        C309   1.079       .  S
N293       C1480   1.338       .  A
N293        N893   1.318   1_545  A
N294      Co1520   2.087       .  S
N295        N307   1.330       .  A
N295        N311   1.316   1_455  A
N295       Co304   2.089       .  S
C296        N300   1.347       .  A
C296        C310   1.468       .  S
C296        C370   1.499       .  S
C297       N1494   1.330       .  A
C297        C316   1.448       .  S
C297        H301   1.081       .  S
N298        C309   1.343       .  A
N298       Co308   2.080       .  S
C302        N318   1.349       .  A
C302        C314   1.467       .  S
C302        C550   1.494       .  S
Co304      N1479   2.096   1_455  S
Co304       N894   2.081       .  S
Co304     Cl2133   2.448   1_455  S
N305        C922   1.348       .  A
N305       N1487   1.320       .  A
C306        N883   1.342       .  A
C306        C319   1.446   1_565  S
Co308      N1506   2.087   1_455  S
Co308     Cl1527   2.443   1_455  S
N311      Co1483   2.078       .  S
Cl315      Co877   2.439   1_545  S
Cl315     Co2122   2.448   1_545  S
Cl315     Co1520   2.443       .  S
C316        N911   1.348       .  A
C316        C331   1.441       .  S
C319        C324   1.410   1_655  A
C319       C1532   1.393   1_545  A
C320        H325   1.084       .  S
C320       C1531   1.393   1_565  A
C320        C927   1.390       .  A
C321        C322   1.410       .  A
C321        C926   1.390       .  A
C321        O326   1.372       .  S
C322       C2141   1.393       .  A
C323        H327   1.084       .  S
C323        C324   1.391       .  A
C323       C2140   1.393       .  A
C324        O328   1.372       .  S
O326        H330   0.992       .  S
O328        H329   0.992       .  S
C331        C336   1.408       .  A
C331       C2150   1.393       .  A
C332        H337   1.084       .  S
C332        C333   1.390       .  A
C332       C2149   1.393       .  A
C333        C334   1.408   1_445  A
C333        O338   1.372       .  S
C334       C2153   1.393       .  A
C335        H339   1.084       .  S
C335        C336   1.389       .  A
C335       C2152   1.393       .  A
C336        O340   1.373       .  S
O338        H342   0.991       .  S
O340        H341   0.992       .  S
C343        C344   1.401       .  A
C343        C348   1.414       .  A
C344        H349   1.082       .  S
C344        C345   1.400       .  A
C345        C346   1.414       .  A
C345        O350   1.371       .  S
C346        C347   1.405       .  A
C347        H351   1.083       .  S
C347        C348   1.406       .  A
C348        O352   1.372       .  S
O350        H354   0.993   1_455  S
O352        H353   0.992       .  S
C355        C356   1.412       .  A
C355        C360   1.412       .  A
C356        H361   1.083       .  S
C356        C357   1.410       .  A
C357        C358   1.411       .  A
C357        O362   1.371       .  S
C358        C359   1.407       .  A
C359        H363   1.081       .  S
C359        C360   1.401       .  A
C360        O364   1.370       .  S
O362        H366   0.992       .  S
O364        H365   0.991       .  S
C367        C368   1.408       .  A
C367        C372   1.417       .  A
C368        H373   1.084       .  S
C368        C369   1.406       .  A
C369        C370   1.417       .  A
C369        O374   1.372       .  S
C370        C371   1.400       .  A
C371        H375   1.077       .  S
C371        C372   1.401       .  A
C372        O376   1.365       .  S
O374        H378   0.992       .  S
O376        H377   0.992       .  S
C379        C380   1.395       .  A
C379        C384   1.407       .  A
C380        H385   1.084       .  S
C380        C381   1.392       .  A
C381        C382   1.407       .  A
C381        O386   1.371       .  S
C382        C383   1.394       .  A
C383        H387   1.084       .  S
C383        C384   1.390       .  A
C384        O388   1.370       .  S
O386        H390   0.990       .  S
O388        H389   0.989       .  S
C391        C392   1.404       .  A
C391        C396   1.402       .  A
C392        H397   1.083       .  S
C392        C393   1.389       .  A
C393        C394   1.400       .  A
C393        O398   1.372       .  S
C394        C395   1.403       .  A
C395        H399   1.083       .  S
C395        C396   1.388       .  A
C396        O400   1.372       .  S
O398        H402   0.990       .  S
O400        H401   0.992       .  S
C403        C404   1.405       .  A
C403        C408   1.410       .  A
C404        H409   1.084       .  S
C404        C405   1.405       .  A
C405        C406   1.413       .  A
C405        O410   1.371       .  S
C406        C407   1.409       .  A
C407        H411   1.084       .  S
C407        C408   1.410       .  A
C408        O412   1.370       .  S
O410        H414   0.992       .  S
O412        H413   0.992       .  S
C415        C416   1.405       .  A
C415        C420   1.408       .  A
C416        H421   1.083       .  S
C416        C417   1.401       .  A
C417        C418   1.413       .  A
C417        O422   1.371       .  S
C418        C419   1.409       .  A
C419        H423   1.083       .  S
C419        C420   1.405       .  A
C420        O424   1.370       .  S
O422        H426   0.992       .  S
O424        H425   0.992       .  S
C427        C428   1.410       .  A
C427        C432   1.411       .  A
C428        H433   1.081       .  S
C428        C429   1.408       .  A
C429        C430   1.413       .  A
C429        O434   1.372       .  S
C430        C431   1.408       .  A
C431        H435   1.083       .  S
C431        C432   1.403       .  A
C432        O436   1.369       .  S
O434        H438   0.992       .  S
O436        H437   0.992       .  S
C439        C440   1.410       .  A
C439        C444   1.411       .  A
C440        H445   1.082       .  S
C440        C441   1.406       .  A
C441        C442   1.410       .  A
C441        O446   1.371       .  S
C442        C443   1.409       .  A
C443        H447   1.081       .  S
C443        C444   1.405       .  A
C444        O448   1.371       .  S
O446        H450   0.992       .  S
O448        H449   0.992       .  S
C451        C452   1.409       .  A
C451        C456   1.410       .  A
C452        H457   1.082   1_545  S
C452        C453   1.401       .  A
C453        C454   1.405       .  A
C453        O458   1.367       .  S
C454        C455   1.409       .  A
C455        H459   1.082       .  S
C455        C456   1.406       .  A
C456        O460   1.372       .  S
O458        H462   0.991       .  S
O460        H461   0.992       .  S
C463        C464   1.405       .  A
C463        C468   1.411       .  A
C464        H469   1.084       .  S
C464        C465   1.404       .  A
C465        C466   1.410       .  A
C465        O470   1.371       .  S
C466        C467   1.404       .  A
C467        H471   1.084       .  S
C467        C468   1.405       .  A
C468        O472   1.372       .  S
O470        H474   0.992       .  S
O472        H473   0.991       .  S
C475        C480   1.416       .  A
C475       C1082   1.400   1_545  A
C476        H481   1.084       .  S
C476        C477   1.404       .  A
C476       C1081   1.400       .  A
C477        C478   1.421       .  A
C477        O482   1.370       .  S
C478       C1085   1.404       .  A
C479        H483   1.083       .  S
C479        C480   1.407       .  A
C479       C1084   1.404   1_545  A
C480        O484   1.370       .  S
O482        H486   0.992       .  S
O484        H485   0.992       .  S
C487        C492   1.421       .  A
C487       C1700   1.399       .  A
C488        H493   1.084       .  S
C488        C489   1.402       .  A
C488       C1699   1.399   1_455  A
C489        C490   1.419       .  A
C489        O494   1.371       .  S
C490       C1703   1.398   1_455  A
C491        H495   1.082       .  S
C491        C492   1.403       .  A
C491       C1702   1.398       .  A
C492        O496   1.369       .  S
O494        H498   0.992       .  S
O496        H497   0.990       .  S
C499        C500   1.401       .  A
C499        C504   1.411       .  A
C500        H505   1.079       .  S
C500        C501   1.397       .  A
C501        C502   1.413       .  A
C501        O506   1.369       .  S
C502        C503   1.410       .  A
C503        H507   1.084       .  S
C503        C504   1.407       .  A
C504        O508   1.371       .  S
O506        H510   0.992       .  S
O508        H509   0.992       .  S
C511        C512   1.406       .  A
C511        C516   1.398       .  A
C512        H517   1.083       .  S
C512        C513   1.388       .  A
C513        C514   1.398       .  A
C513        O518   1.371       .  S
C514        C515   1.405       .  A
C515        H519   1.082       .  S
C515        C516   1.388       .  A
C516        O520   1.371       .  S
O518        H522   0.992       .  S
O520        H521   0.992       .  S
C523        C524   1.405       .  A
C523        C528   1.399       .  A
C524        H529   1.084       .  S
C524        C525   1.390       .  A
C525        C526   1.398       .  A
C525        O530   1.372       .  S
C526        C527   1.405       .  A
C527        H531   1.084       .  S
C527        C528   1.390       .  A
C528        O532   1.373       .  S
O530        H534   0.991       .  S
O532        H533   0.990       .  S
C535        C536   1.404       .  A
C535        C540   1.411       .  A
C536        H541   1.083       .  S
C536        C537   1.406       .  A
C537        C538   1.413       .  A
C537        O542   1.372       .  S
C538        C539   1.404       .  A
C539        H543   1.083       .  S
C539        C540   1.404       .  A
C540        O544   1.371       .  S
O542        H546   0.992       .  S
O544        H545   0.990       .  S
C547        C548   1.403       .  A
C547        C552   1.418       .  A
C548        H553   1.084       .  S
C548        C549   1.405       .  A
C549        C550   1.418       .  A
C549        O554   1.370       .  S
C550        C551   1.401       .  A
C551        H555   1.084       .  S
C551        C552   1.402       .  A
C552        O556   1.366       .  S
O554        H558   0.991   1_545  S
O556        H557   0.990       .  S
C559        C560   1.407       .  A
C559        C564   1.412       .  A
C560        H565   1.083       .  S
C560        C561   1.402       .  A
C561        C562   1.409       .  A
C561        O566   1.368       .  S
C562        C563   1.409       .  A
C563        H567   1.083       .  S
C563        C564   1.407       .  A
C564        O568   1.371       .  S
O566        H570   0.992       .  S
O568        H569   0.992       .  S
C571        C572   1.404       .  A
C571        C576   1.413       .  A
C572        H577   1.082       .  S
C572       C1179   1.401   1_545  A
C573        C574   1.411   1_554  A
C573       C1178   1.401       .  A
C573        O578   1.369       .  S
C574       C1181   1.406       .  A
C575       H1185   1.083       .  S
C575        C576   1.409   1_566  A
C575       C1180   1.406       .  A
C576        O580   1.372       .  S
O578        H582   0.991       .  S
H579       C1181   1.083       .  S
O580        H581   0.991   1_554  S
C583        C584   1.409       .  A
C583       C1800   1.409       .  A
C584        H589   1.083       .  S
C584        C585   1.400   1_554  A
C585       C1798   1.407       .  A
C585        O590   1.368       .  S
C586        C587   1.412       .  A
C586       C1797   1.407   1_455  A
C587        H591   1.081       .  S
C587        C588   1.406   1_456  A
C588       C1795   1.409       .  A
C588        O592   1.371   1_655  S
O590        H594   0.991       .  S
O592        H593   0.992       .  S
C595        C596   1.412   1_556  A
C595        C600   1.409       .  A
C596        H601   1.084       .  S
C596        C597   1.412       .  A
C597        C598   1.411       .  A
C597        O602   1.371       .  S
C598        C599   1.410       .  A
C599        H603   1.081   1_554  S
C599        C600   1.403   1_554  A
C600        O604   1.372       .  S
O602        H606   0.991       .  S
O604        H605   0.992       .  S
C607        N625   1.347       .  A
C607        C644   1.449       .  S
C607       C1120   1.450   1_554  S
N608        N625   1.319       .  A
N608        N630   1.318       .  A
N608       Co645   2.073       .  S
C609        N634   1.340       .  A
C609        C647   1.458       .  S
C609        H654   1.079       .  S
H610        C651   1.081       .  S
C611        N635   1.340       .  A
C611        C615   1.467       .  S
C611        H640   1.079       .  S
Co612       N630   2.051       .  S
Co612       N620   2.105       .  S
Co612       N652   2.079       .  S
Co612       N628   2.085       .  S
Co612      Cl656   2.446       .  S
N613        C651   1.343       .  A
N613        N620   1.318       .  A
N613       Co614   2.075       .  S
Co614       N617   2.078       .  S
Co614       N634   2.091       .  S
Co614       N621   2.054       .  S
Co614      Cl656   2.448       .  S
C615        N653   1.349       .  A
C615       C1153   1.497       .  S
N616        N623   1.318       .  A
N616        N646   1.333       .  A
N616       Co649   2.106       .  S
N617        N635   1.322       .  A
N617        N653   1.323       .  A
N618        C647   1.356       .  A
N618        N628   1.328       .  A
H619        C644   1.081       .  S
N620        N641   1.327       .  A
N621        N639   1.318       .  A
N621        N626   1.315       .  A
C622        N626   1.340       .  A
C622        C650   1.460       .  S
C622       C1129   1.447       .  S
N623        C638   1.337       .  A
N623       Co645   2.089       .  S
C624        N652   1.341       .  A
C624        C627   1.463       .  S
C624        H658   1.082       .  S
C627        N648   1.351       .  A
C627       C1189   1.492       .  S
N628        N634   1.317       .  A
N629        C655   1.346       .  A
N629        N631   1.318       .  A
N629       Co645   2.080       .  S
N630        C644   1.329       .  A
N631        N659   1.324       .  A
N631       Co649   2.100       .  S
H632        C655   1.080       .  S
H633        C650   1.081       .  S
N635       Co649   2.082       .  S
N636        N648   1.323       .  A
N636        N652   1.322       .  A
N636       Co645   2.086       .  S
C637        N641   1.351       .  A
C637        C651   1.466       .  S
C637       C1177   1.492       .  S
C638        C657   1.459       .  S
C638        H642   1.080       .  S
N639        C650   1.339       .  A
N639       Co649   2.083       .  S
C643        N659   1.351       .  A
C643        C655   1.470       .  S
C643       C1165   1.495       .  S
Co645      Cl656   2.448       .  S
N646        C657   1.361       .  A
C647       C1144   1.489       .  S
Co649      Cl656   2.441       .  S
C657       C1204   1.501       .  S
C660        N678   1.349       .  A
C660        C697   1.469       .  S
C660       C1081   1.494       .  S
N661        N678   1.327       .  A
N661        N683   1.318       .  A
N661       Co698   2.089       .  S
C662        N687   1.326       .  A
C662        C700   1.445       .  S
C662        H707   1.082       .  S
H663        C704   1.082       .  S
C664        N688   1.338       .  A
C664        C668   1.459       .  S
C664        H693   1.080       .  S
Co665       N683   2.095       .  S
Co665       N673   2.079       .  S
Co665       N705   2.091       .  S
Co665       N681   2.088       .  S
Co665      Cl709   2.436       .  S
N666        C704   1.343       .  A
N666        N673   1.323       .  A
N666       Co667   2.079       .  S
Co667       N670   2.073       .  S
Co667       N687   2.035       .  S
Co667       N674   2.101       .  S
Co667      Cl709   2.450       .  S
C668        N706   1.353       .  A
C668       C1105   1.488       .  S
N669        N676   1.317       .  A
N669        N699   1.315       .  A
N669       Co702   2.052       .  S
N670        N688   1.318       .  A
N670        N706   1.328       .  A
N671        C700   1.352       .  A
N671        N681   1.321       .  A
H672        C697   1.082       .  S
N673        N694   1.320       .  A
N674        N692   1.319       .  A
N674        N679   1.326       .  A
C675        N679   1.349       .  A
C675        C703   1.464       .  S
C675       C1069   1.486       .  S
N676        C691   1.337       .  A
N676       Co698   2.078       .  S
C677        N705   1.342       .  A
C677        C680   1.463       .  S
C677        H711   1.080       .  S
C680        N701   1.357       .  A
C680       C1045   1.498       .  S
N681        N687   1.317       .  A
N682        C708   1.338       .  A
N682        N684   1.322       .  A
N682       Co698   2.074       .  S
N683        C697   1.347       .  A
N684        N712   1.323       .  A
N684       Co702   2.086       .  S
H685        C708   1.081       .  S
H686        C703   1.081       .  S
N688       Co702   2.096       .  S
N689        N701   1.329       .  A
N689        N705   1.317       .  A
N689       Co698   2.094       .  S
C690        N694   1.346       .  A
C690        C704   1.465       .  S
C690       C1060   1.490       .  S
C691        C710   1.458       .  S
C691        H695   1.080       .  S
N692        C703   1.344       .  A
N692       Co702   2.075       .  S
C696        N712   1.351       .  A
C696        C708   1.462       .  S
C696       C1093   1.491       .  S
Co698      Cl709   2.443       .  S
N699        C710   1.341       .  A
C700       C1117   1.450       .  S
Co702      Cl709   2.443       .  S
C710       C1132   1.447       .  S
C713        N731   1.353       .  A
C713        C750   1.467       .  S
C713       C1108   1.493       .  S
N714        N731   1.326       .  A
N714        N736   1.317       .  A
N714       Co751   2.102       .  S
C715        N740   1.332       .  A
C715        C753   1.454       .  S
C715        H760   1.080       .  S
H716        C757   1.081       .  S
C717        N741   1.336       .  A
C717        C721   1.458       .  S
C717        H746   1.077       .  S
Co718       N736   2.069       .  S
Co718       N726   2.081       .  S
Co718       N758   2.082       .  S
Co718       N734   2.064       .  S
Co718      Cl762   2.437       .  S
N719        C757   1.343       .  A
N719        N726   1.322       .  A
N719       Co720   2.081       .  S
Co720       N723   2.104       .  S
Co720       N740   2.062       .  S
Co720       N727   2.108       .  S
Co720      Cl762   2.453       .  S
C721        N759   1.362       .  A
C721       C1084   1.502       .  S
N722        N729   1.318       .  A
N722        N752   1.318       .  A
N722       Co755   2.076       .  S
N723        N741   1.317       .  A
N723        N759   1.332       .  A
N724        C753   1.346       .  A
N724        N734   1.317       .  A
H725        C750   1.079       .  S
N726        N747   1.322       .  A
N727        N745   1.317       .  A
N727        N732   1.328       .  A
C728        N732   1.352       .  A
C728        C756   1.468       .  S
C728       C1012   1.498       .  S
N729        C744   1.334       .  A
N729       Co751   2.059       .  S
C730        N758   1.336       .  A
C730        C733   1.454       .  S
C730        H764   1.081       .  S
C733        N754   1.358       .  A
C733       C1021   1.489       .  S
N734        N740   1.318       .  A
N735        C761   1.344       .  A
N735        N737   1.323       .  A
N735       Co751   2.088       .  S
N736        C750   1.339       .  A
N737        N765   1.321       .  A
N737       Co755   2.076       .  S
H738        C761   1.082       .  S
H739        C756   1.081       .  S
N741       Co755   2.084       .  S
N742        N754   1.330       .  A
N742        N758   1.318       .  A
N742       Co751   2.097       .  S
C743        N747   1.349       .  A
C743        C757   1.468       .  S
C743       C1033   1.500       .  S
C744        C763   1.456       .  S
C744        H748   1.080       .  S
N745        C756   1.344       .  A
N745       Co755   2.078       .  S
C749        N765   1.346       .  A
C749        C761   1.464       .  S
C749       C1096   1.491       .  S
Co751      Cl762   2.453       .  S
N752        C763   1.344       .  A
C753        C997   1.452       .  S
Co755      Cl762   2.438       .  S
C763        C985   1.448       .  S
C766        N784   1.352       .  A
C766        C803   1.469       .  S
C766       C1201   1.497       .  S
N767        N784   1.328       .  A
N767        N789   1.319       .  A
N767       Co804   2.105       .  S
C768        N793   1.336       .  A
C768        C806   1.455       .  S
C768        H813   1.081       .  S
H769        C810   1.077       .  S
C770        N794   1.337       .  A
C770        C774   1.460       .  S
C770        H799   1.078       .  S
Co771       N789   2.084       .  S
Co771       N779   2.079       .  S
Co771       N811   2.086       .  S
Co771       N787   2.069       .  S
Co771      Cl815   2.452       .  S
N772        C810   1.338       .  A
N772        N779   1.321       .  A
N772       Co773   2.083       .  S
Co773       N776   2.091       .  S
Co773       N793   2.070       .  S
Co773       N780   2.096       .  S
Co773      Cl815   2.437       .  S
C774        N812   1.357       .  A
C774       C1180   1.493       .  S
N775        N782   1.317       .  A
N775        N805   1.316       .  A
N775       Co808   2.060       .  S
N776        N794   1.317       .  A
N776        N812   1.330       .  A
N777        C806   1.343       .  A
N777        N787   1.317       .  A
H778        C803   1.081       .  S
N779        N800   1.323       .  A
N780        N798   1.317       .  A
N780        N785   1.325       .  A
C781        N785   1.349       .  A
C781        C809   1.466       .  S
C781        C949   1.488       .  S
N782        C797   1.332       .  A
N782       Co804   2.064       .  S
C783        N811   1.337       .  A
C783        C786   1.459       .  S
C783        H817   1.079       .  S
C786        N807   1.359       .  A
C786        C964   1.499       .  S
N787        N793   1.318       .  A
N788        C814   1.341       .  A
N788        N790   1.323       .  A
N788       Co804   2.077       .  S
N789        C803   1.344       .  A
N790        N818   1.322       .  A
N790       Co808   2.084       .  S
H791        C814   1.081       .  S
H792        C809   1.081       .  S
N794       Co808   2.089       .  S
N795        N807   1.332       .  A
N795        N811   1.317       .  A
N795       Co804   2.098       .  S
C796        N800   1.351       .  A
C796        C810   1.471       .  S
C796        C973   1.504       .  S
C797        C816   1.457   1_556  S
C797        H801   1.080       .  S
N798        C809   1.343       .  A
N798       Co808   2.072       .  S
C802        N818   1.349       .  A
C802        C814   1.464       .  S
C802       C1192   1.495       .  S
Co804      Cl815   2.442       .  S
N805        C816   1.345   1_556  A
C806        C988   1.448       .  S
Co808      Cl815   2.448       .  S
C816       C1000   1.451       .  S
C819        N837   1.349       .  A
C819        C856   1.465       .  S
C819       C1072   1.484       .  S
N820        N837   1.326       .  A
N820        N842   1.320       .  A
N820      Co2069   2.101       .  S
C821       N2058   1.331       .  A
C821        C859   1.450       .  S
C821        H866   1.081       .  S
H822        C863   1.080   1_545  S
C823        N847   1.341       .  A
C823        C827   1.461       .  S
C823        H852   1.079       .  S
Co824       N842   2.081   1_554  S
Co824       N832   2.090       .  S
Co824      N2076   2.091       .  S
Co824       N840   2.070       .  S
Co824     Cl1474   2.449       .  S
N825        C863   1.340       .  A
N825        N832   1.322       .  A
Co826       N829   2.091   1_554  S
Co826       N846   2.061       .  S
Co826      N2045   2.096       .  S
Co826     Cl2080   2.444       .  S
C827        N865   1.357       .  A
C827       C1048   1.498       .  S
N828       N2070   1.315       .  A
N828       Co861   2.062       .  S
N829        N847   1.318       .  A
N829        N865   1.329       .  A
N830       N2052   1.319       .  A
H831        C856   1.082       .  S
N832        N853   1.325       .  A
N833        N851   1.316       .  A
N833        N838   1.325       .  A
N833      Co2038   2.096   1_455  S
C834        N838   1.351       .  A
C834        C862   1.468       .  S
C834       C1024   1.493       .  S
N835       C2062   1.338       .  A
N835       Co857   2.076       .  S
C836        N864   1.340       .  A
C836        C839   1.454       .  S
C836        H870   1.081   1_455  S
C839        N860   1.359       .  A
C839       C1009   1.494       .  S
N840       N2042   1.319       .  A
N841        C867   1.341       .  A
N841        N843   1.322       .  A
N842        C856   1.345       .  A
N843        N871   1.322       .  A
N843       Co861   2.079       .  S
H844        C867   1.081       .  S
H845        C862   1.080       .  S
N846       C2033   1.331       .  A
N847      Co2073   2.094       .  S
N848        N860   1.333       .  A
N848        N864   1.319       .  A
N848       Co857   2.106   1_554  S
C849        N853   1.353       .  A
C849        C863   1.464       .  S
C849       C1036   1.499       .  S
C850       N2047   1.338       .  A
C850        C869   1.459   1_565  S
C850        H854   1.081       .  S
N851        C862   1.342       .  A
N851       Co861   2.073   1_554  S
C855        N871   1.348       .  A
C855        C867   1.468       .  S
C855       C1057   1.490       .  S
Co857      N2032   2.101   1_455  S
N858       N2040   1.315       .  A
C859        C940   1.441       .  S
Co861      N2059   2.094   1_455  S
Co861      Cl868   2.447   1_556  S
N864      Co2036   2.091   1_455  S
Cl868     Co1430   2.449   1_455  S
Cl868     Co2038   2.444   1_455  S
C869        C928   1.446       .  S
C872        N890   1.350       .  A
C872        C909   1.471       .  S
C872       C1168   1.495       .  S
N873        N890   1.325       .  A
N873        N895   1.317       .  A
N873      Co2122   2.096       .  S
C874       N2111   1.338       .  A
C874        C912   1.458       .  S
C874        H919   1.080       .  S
H875        C916   1.082   1_545  S
C876        N900   1.340       .  A
C876        C880   1.457       .  S
C876        H905   1.080       .  S
Co877       N895   2.078       .  S
Co877       N885   2.071       .  S
Co877      N2129   2.078       .  S
Co877       N893   2.068       .  S
N878        C916   1.342       .  A
N878        N885   1.322       .  A
Co879       N882   2.097       .  S
Co879       N899   2.071       .  S
Co879      N2098   2.102       .  S
Co879      Cl921   2.446       .  S
C880        N918   1.356       .  A
C880       C1141   1.487       .  S
N881       N2123   1.320       .  A
N881       Co914   2.073       .  S
N882        N900   1.319       .  A
N882        N918   1.330       .  A
N883       N2105   1.315       .  A
H884        C909   1.080       .  S
N885        N906   1.322       .  A
N886        N904   1.316       .  A
N886        N891   1.327       .  A
N886      Co2091   2.102   1_455  S
C887        N891   1.353       .  A
C887        C915   1.471       .  S
C887        C961   1.502       .  S
N888       C2115   1.330       .  A
N888       Co910   2.055       .  S
C889        N917   1.334       .  A
C889        C892   1.455   1_655  S
C889        H923   1.078       .  S
C892        N913   1.358       .  A
C892        C952   1.490       .  S
N893       N2095   1.315       .  A
N894        C920   1.341       .  A
N894        N896   1.323       .  A
N895        C909   1.344       .  A
N896        N924   1.322       .  A
N896       Co914   2.084       .  S
H897        C920   1.080       .  S
H898        C915   1.079       .  S
N899       C2086   1.338       .  A
N900      Co2126   2.087       .  S
N901        N913   1.330       .  A
N901        N917   1.316   1_455  A
N901       Co910   2.089       .  S
C902        N906   1.347       .  A
C902        C916   1.468       .  S
C902        C976   1.499       .  S
C903       N2100   1.330       .  A
C903        C922   1.448   1_565  S
C903        H907   1.081       .  S
N904        C915   1.343       .  A
N904       Co914   2.080       .  S
C908        N924   1.349       .  A
C908        C920   1.467       .  S
C908       C1156   1.494       .  S
Co910      N2085   2.096   1_455  S
Co910     Cl1527   2.448   1_465  S
N911       N2093   1.320       .  A
C912        C925   1.446       .  S
Co914      N2112   2.087   1_455  S
Co914     Cl2133   2.443   1_455  S
N917      Co2089   2.078       .  S
Cl921     Co1516   2.448       .  S
Cl921     Co2126   2.443       .  S
C922        C937   1.441       .  S
C925       C2138   1.393       .  A
C925        C930   1.410   1_655  A
C926        H931   1.084       .  S
C926       C2137   1.393       .  A
C927        C928   1.410   1_565  A
C927        O932   1.372       .  S
C928       C1535   1.393       .  A
C929        H933   1.084       .  S
C929       C1534   1.393       .  A
C929        C930   1.391       .  A
C930        O934   1.372       .  S
O932        H936   0.992       .  S
O934        H935   0.992       .  S
C937       C1544   1.393       .  A
C937        C942   1.408   1_545  A
C938        H943   1.084       .  S
C938       C1543   1.393       .  A
C938        C939   1.390       .  A
C939        C940   1.408   1_455  A
C939        O944   1.372       .  S
C940       C1547   1.393       .  A
C941        H945   1.084       .  S
C941       C1546   1.393       .  A
C941        C942   1.389       .  A
C942        O946   1.373       .  S
O944        H948   0.991       .  S
O946        H947   0.992   1_565  S
C949        C950   1.401       .  A
C949        C954   1.414       .  A
C950        H955   1.082       .  S
C950        C951   1.400       .  A
C951        C952   1.414       .  A
C951        O956   1.371       .  S
C952        C953   1.405       .  A
C953        H957   1.083       .  S
C953        C954   1.406       .  A
C954        O958   1.372       .  S
O956        H960   0.993   1_455  S
O958        H959   0.992       .  S
C961        C962   1.412       .  A
C961        C966   1.412       .  A
C962        H967   1.083       .  S
C962        C963   1.410       .  A
C963        C964   1.411       .  A
C963        O968   1.371       .  S
C964        C965   1.407       .  A
C965        H969   1.081       .  S
C965        C966   1.401       .  A
C966        O970   1.370       .  S
O968        H972   0.992       .  S
O970        H971   0.991       .  S
C973        C974   1.408       .  A
C973        C978   1.417       .  A
C974        H979   1.084       .  S
C974        C975   1.406       .  A
C975        C976   1.417       .  A
C975        O980   1.372       .  S
C976        C977   1.400       .  A
C977        H981   1.077       .  S
C977        C978   1.401       .  A
C978        O982   1.365       .  S
O980        H984   0.992       .  S
O982        H983   0.992       .  S
C985        C986   1.395       .  A
C985        C990   1.407       .  A
C986        H991   1.084       .  S
C986        C987   1.392       .  A
C987        C988   1.407       .  A
C987        O992   1.371       .  S
C988        C989   1.394       .  A
C989        H993   1.084       .  S
C989        C990   1.390       .  A
C990        O994   1.370       .  S
O992        H996   0.990       .  S
O994        H995   0.989       .  S
C997        C998   1.404       .  A
C997       C1002   1.402       .  A
C998       H1003   1.083       .  S
C998        C999   1.389       .  A
C999       C1000   1.400       .  A
C999       O1004   1.372       .  S
C1000      C1001   1.403       .  A
C1001      H1005   1.083       .  S
C1001      C1002   1.388       .  A
C1002      O1006   1.372       .  S
O1004      H1008   0.990       .  S
O1006      H1007   0.992       .  S
C1009      C1010   1.405       .  A
C1009      C1014   1.410       .  A
C1010      H1015   1.084       .  S
C1010      C1011   1.405       .  A
C1011      C1012   1.413       .  A
C1011      O1016   1.371       .  S
C1012      C1013   1.409       .  A
C1013      H1017   1.084       .  S
C1013      C1014   1.410       .  A
C1014      O1018   1.370       .  S
O1016      H1020   0.992       .  S
O1018      H1019   0.992       .  S
C1021      C1022   1.405       .  A
C1021      C1026   1.408       .  A
C1022      H1027   1.083       .  S
C1022      C1023   1.401       .  A
C1023      C1024   1.413       .  A
C1023      O1028   1.371       .  S
C1024      C1025   1.409       .  A
C1025      H1029   1.083       .  S
C1025      C1026   1.405       .  A
C1026      O1030   1.370       .  S
O1028      H1032   0.992       .  S
O1030      H1031   0.992       .  S
C1033      C1034   1.410       .  A
C1033      C1038   1.411       .  A
C1034      H1039   1.081       .  S
C1034      C1035   1.408       .  A
C1035      C1036   1.413       .  A
C1035      O1040   1.372       .  S
C1036      C1037   1.408       .  A
C1037      H1041   1.083       .  S
C1037      C1038   1.403       .  A
C1038      O1042   1.369       .  S
O1040      H1044   0.992   1_565  S
O1042      H1043   0.992       .  S
C1045      C1046   1.410       .  A
C1045      C1050   1.411       .  A
C1046      H1051   1.082       .  S
C1046      C1047   1.406       .  A
C1047      C1048   1.410       .  A
C1047      O1052   1.371       .  S
C1048      C1049   1.409       .  A
C1049      H1053   1.081       .  S
C1049      C1050   1.405       .  A
C1050      O1054   1.371       .  S
O1052      H1056   0.992       .  S
O1054      H1055   0.992       .  S
C1057      C1058   1.409       .  A
C1057      C1062   1.410       .  A
C1058      H1063   1.082       .  S
C1058      C1059   1.401       .  A
C1059      C1060   1.405       .  A
C1059      O1064   1.367       .  S
C1060      C1061   1.409       .  A
C1061      H1065   1.082       .  S
C1061      C1062   1.406       .  A
C1062      O1066   1.372       .  S
O1064      H1068   0.991       .  S
O1066      H1067   0.992       .  S
C1069      C1070   1.405       .  A
C1069      C1074   1.411       .  A
C1070      H1075   1.084       .  S
C1070      C1071   1.404       .  A
C1071      C1072   1.410       .  A
C1071      O1076   1.371       .  S
C1072      C1073   1.404       .  A
C1073      H1077   1.084       .  S
C1073      C1074   1.405       .  A
C1074      O1078   1.372       .  S
O1076      H1080   0.992       .  S
O1078      H1079   0.991       .  S
C1081      C1086   1.416       .  A
C1082      H1087   1.084       .  S
C1082      C1083   1.404       .  A
C1083      C1084   1.421       .  A
C1083      O1088   1.370       .  S
C1085      H1089   1.083       .  S
C1085      C1086   1.407       .  A
C1086      O1090   1.370       .  S
O1088      H1092   0.992       .  S
O1090      H1091   0.992       .  S
C1093      C2306   1.399       .  A
C1093      C1098   1.421       .  A
C1094      H1099   1.084       .  S
C1094      C2305   1.399   1_455  A
C1094      C1095   1.402       .  A
C1095      C1096   1.419       .  A
C1095      O1100   1.371       .  S
C1096      C2309   1.398   1_455  A
C1097      H1101   1.082       .  S
C1097      C2308   1.398       .  A
C1097      C1098   1.403       .  A
C1098      O1102   1.369       .  S
O1100      H1104   0.992       .  S
O1102      H1103   0.990       .  S
C1105      C1106   1.401       .  A
C1105      C1110   1.411       .  A
C1106      H1111   1.079       .  S
C1106      C1107   1.397       .  A
C1107      C1108   1.413       .  A
C1107      O1112   1.369       .  S
C1108      C1109   1.410       .  A
C1109      H1113   1.084       .  S
C1109      C1110   1.407       .  A
C1110      O1114   1.371       .  S
O1112      H1116   0.992       .  S
O1114      H1115   0.992       .  S
C1117      C1118   1.406       .  A
C1117      C1122   1.398       .  A
C1118      H1123   1.083       .  S
C1118      C1119   1.388       .  A
C1119      C1120   1.398       .  A
C1119      O1124   1.371       .  S
C1120      C1121   1.405       .  A
C1121      H1125   1.082       .  S
C1121      C1122   1.388       .  A
C1122      O1126   1.371       .  S
O1124      H1128   0.992       .  S
O1126      H1127   0.992       .  S
C1129      C1130   1.405       .  A
C1129      C1134   1.399       .  A
C1130      H1135   1.084       .  S
C1130      C1131   1.390       .  A
C1131      C1132   1.398       .  A
C1131      O1136   1.372       .  S
C1132      C1133   1.405       .  A
C1133      H1137   1.084       .  S
C1133      C1134   1.390       .  A
C1134      O1138   1.373       .  S
O1136      H1140   0.991       .  S
O1138      H1139   0.990       .  S
C1141      C1142   1.404       .  A
C1141      C1146   1.411       .  A
C1142      H1147   1.083       .  S
C1142      C1143   1.406       .  A
C1143      C1144   1.413       .  A
C1143      O1148   1.372       .  S
C1144      C1145   1.404       .  A
C1145      H1149   1.083       .  S
C1145      C1146   1.404       .  A
C1146      O1150   1.371       .  S
O1148      H1152   0.992       .  S
O1150      H1151   0.990       .  S
C1153      C1154   1.403       .  A
C1153      C1158   1.418       .  A
C1154      H1159   1.084       .  S
C1154      C1155   1.405       .  A
C1155      C1156   1.418       .  A
C1155      O1160   1.370       .  S
C1156      C1157   1.401       .  A
C1157      H1161   1.084       .  S
C1157      C1158   1.402       .  A
C1158      O1162   1.366       .  S
O1160      H1164   0.991       .  S
O1162      H1163   0.990       .  S
C1165      C1166   1.407       .  A
C1165      C1170   1.412       .  A
C1166      H1171   1.083       .  S
C1166      C1167   1.402       .  A
C1167      C1168   1.409       .  A
C1167      O1172   1.368       .  S
C1168      C1169   1.409       .  A
C1169      H1173   1.083       .  S
C1169      C1170   1.407       .  A
C1170      O1174   1.371       .  S
O1172      H1176   0.992       .  S
O1174      H1175   0.992       .  S
C1177      C1178   1.404       .  A
C1177      C1182   1.413       .  A
C1178      H1183   1.082       .  S
C1179      C1180   1.411   1_554  A
C1179      O1184   1.369       .  S
C1181      C1182   1.409   1_556  A
C1182      O1186   1.372       .  S
O1184      H1188   0.991       .  S
O1186      H1187   0.991   1_554  S
C1189      C1190   1.409       .  A
C1189      C2406   1.409       .  A
C1190      H1195   1.083       .  S
C1190      C1191   1.400   1_554  A
C1191      C2404   1.407       .  A
C1191      O1196   1.368       .  S
C1192      C2403   1.407   1_455  A
C1192      C1193   1.412       .  A
C1193      H1197   1.081       .  S
C1193      C1194   1.406   1_456  A
C1194      C2401   1.409       .  A
C1194      O1198   1.371   1_655  S
O1196      H1200   0.991       .  S
O1198      H1199   0.992       .  S
C1201      C1202   1.412   1_556  A
C1201      C1206   1.409       .  A
C1202      H1207   1.084       .  S
C1202      C1203   1.412       .  A
C1203      C1204   1.411       .  A
C1203      O1208   1.371       .  S
C1204      C1205   1.410       .  A
C1205      H1209   1.081   1_554  S
C1205      C1206   1.403   1_554  A
C1206      O1210   1.372       .  S
O1208      H1212   0.991       .  S
O1210      H1211   0.992       .  S
C1213      N1231   1.347       .  A
C1213      C1250   1.449       .  S
C1213      C1726   1.450   1_554  S
N1214      N1231   1.319       .  A
N1214      N1236   1.318       .  A
N1214     Co1251   2.073       .  S
C1215      N1240   1.340       .  A
C1215      C1253   1.458       .  S
C1215      H1260   1.079       .  S
H1216      C1257   1.081       .  S
C1217      N1241   1.340       .  A
C1217      C1221   1.467       .  S
C1217      H1246   1.079       .  S
Co1218     N1236   2.051       .  S
Co1218     N1226   2.105       .  S
Co1218     N1258   2.079       .  S
Co1218     N1234   2.085       .  S
Co1218    Cl1262   2.446       .  S
N1219      C1257   1.343       .  A
N1219      N1226   1.318       .  A
N1219     Co1220   2.075       .  S
Co1220     N1223   2.078       .  S
Co1220     N1240   2.091       .  S
Co1220     N1227   2.054       .  S
Co1220    Cl1262   2.448       .  S
C1221      N1259   1.349       .  A
C1221      C1759   1.497       .  S
N1222      N1229   1.318       .  A
N1222      N1252   1.333       .  A
N1222     Co1255   2.106       .  S
N1223      N1241   1.322       .  A
N1223      N1259   1.323       .  A
N1224      C1253   1.356       .  A
N1224      N1234   1.328       .  A
H1225      C1250   1.081       .  S
N1226      N1247   1.327       .  A
N1227      N1245   1.318       .  A
N1227      N1232   1.315       .  A
C1228      N1232   1.340       .  A
C1228      C1256   1.460       .  S
C1228      C1735   1.447       .  S
N1229      C1244   1.337       .  A
N1229     Co1251   2.089       .  S
C1230      N1258   1.341       .  A
C1230      C1233   1.463       .  S
C1230      H1264   1.082       .  S
C1233      N1254   1.351       .  A
C1233      C1795   1.492       .  S
N1234      N1240   1.317       .  A
N1235      C1261   1.346       .  A
N1235      N1237   1.318       .  A
N1235     Co1251   2.080       .  S
N1236      C1250   1.329       .  A
N1237      N1265   1.324       .  A
N1237     Co1255   2.100       .  S
H1238      C1261   1.080       .  S
H1239      C1256   1.081       .  S
N1241     Co1255   2.082       .  S
N1242      N1254   1.323       .  A
N1242      N1258   1.322       .  A
N1242     Co1251   2.086       .  S
C1243      N1247   1.351       .  A
C1243      C1257   1.466       .  S
C1243      C1783   1.492       .  S
C1244      C1263   1.459       .  S
C1244      H1248   1.080       .  S
N1245      C1256   1.339       .  A
N1245     Co1255   2.083       .  S
C1249      N1265   1.351       .  A
C1249      C1261   1.470       .  S
C1249      C1771   1.495       .  S
Co1251    Cl1262   2.448       .  S
N1252      C1263   1.361       .  A
C1253      C1750   1.489       .  S
Co1255    Cl1262   2.441       .  S
C1263      C1810   1.501       .  S
C1266      N1284   1.349       .  A
C1266      C1303   1.469       .  S
C1266      C1687   1.494       .  S
N1267      N1284   1.327       .  A
N1267      N1289   1.318       .  A
N1267     Co1304   2.089       .  S
C1268      N1293   1.326       .  A
C1268      C1306   1.445       .  S
C1268      H1313   1.082       .  S
H1269      C1310   1.082       .  S
C1270      N1294   1.338       .  A
C1270      C1274   1.459       .  S
C1270      H1299   1.080       .  S
Co1271     N1289   2.095       .  S
Co1271     N1279   2.079       .  S
Co1271     N1311   2.091       .  S
Co1271     N1287   2.088       .  S
Co1271    Cl1315   2.436       .  S
N1272      C1310   1.343       .  A
N1272      N1279   1.323       .  A
N1272     Co1273   2.079       .  S
Co1273     N1276   2.073       .  S
Co1273     N1293   2.035       .  S
Co1273     N1280   2.101       .  S
Co1273    Cl1315   2.450       .  S
C1274      N1312   1.353       .  A
C1274      C1711   1.488       .  S
N1275      N1282   1.317       .  A
N1275      N1305   1.315       .  A
N1275     Co1308   2.052       .  S
N1276      N1294   1.318       .  A
N1276      N1312   1.328       .  A
N1277      C1306   1.352       .  A
N1277      N1287   1.321       .  A
H1278      C1303   1.082       .  S
N1279      N1300   1.320       .  A
N1280      N1298   1.319       .  A
N1280      N1285   1.326       .  A
C1281      N1285   1.349       .  A
C1281      C1309   1.464       .  S
C1281      C1675   1.486       .  S
N1282      C1297   1.337       .  A
N1282     Co1304   2.078       .  S
C1283      N1311   1.342       .  A
C1283      C1286   1.463       .  S
C1283      H1317   1.080       .  S
C1286      N1307   1.357       .  A
C1286      C1651   1.498       .  S
N1287      N1293   1.317       .  A
N1288      C1314   1.338       .  A
N1288      N1290   1.322       .  A
N1288     Co1304   2.074       .  S
N1289      C1303   1.347       .  A
N1290      N1318   1.323       .  A
N1290     Co1308   2.086       .  S
H1291      C1314   1.081       .  S
H1292      C1309   1.081       .  S
N1294     Co1308   2.096       .  S
N1295      N1307   1.329       .  A
N1295      N1311   1.317       .  A
N1295     Co1304   2.094       .  S
C1296      N1300   1.346       .  A
C1296      C1310   1.465       .  S
C1296      C1666   1.490       .  S
C1297      C1316   1.458       .  S
C1297      H1301   1.080       .  S
N1298      C1309   1.344       .  A
N1298     Co1308   2.075       .  S
C1302      N1318   1.351       .  A
C1302      C1314   1.462       .  S
C1302      C1699   1.491       .  S
Co1304    Cl1315   2.443       .  S
N1305      C1316   1.341       .  A
C1306      C1723   1.450       .  S
Co1308    Cl1315   2.443       .  S
C1316      C1738   1.447       .  S
C1319      N1337   1.353       .  A
C1319      C1356   1.467       .  S
C1319      C1714   1.493       .  S
N1320      N1337   1.326       .  A
N1320      N1342   1.317       .  A
N1320     Co1357   2.102       .  S
C1321      N1346   1.332       .  A
C1321      C1359   1.454       .  S
C1321      H1366   1.080       .  S
H1322      C1363   1.081       .  S
C1323      N1347   1.336       .  A
C1323      C1327   1.458       .  S
C1323      H1352   1.077       .  S
Co1324     N1342   2.069       .  S
Co1324     N1332   2.081       .  S
Co1324     N1364   2.082       .  S
Co1324     N1340   2.064       .  S
Co1324    Cl1368   2.437       .  S
N1325      C1363   1.343       .  A
N1325      N1332   1.322       .  A
N1325     Co1326   2.081       .  S
Co1326     N1329   2.104       .  S
Co1326     N1346   2.062       .  S
Co1326     N1333   2.108       .  S
Co1326    Cl1368   2.453       .  S
C1327      N1365   1.362       .  A
C1327      C1690   1.502       .  S
N1328      N1335   1.318       .  A
N1328      N1358   1.318       .  A
N1328     Co1361   2.076       .  S
N1329      N1347   1.317       .  A
N1329      N1365   1.332       .  A
N1330      C1359   1.346       .  A
N1330      N1340   1.317       .  A
H1331      C1356   1.079       .  S
N1332      N1353   1.322       .  A
N1333      N1351   1.317       .  A
N1333      N1338   1.328       .  A
C1334      N1338   1.352       .  A
C1334      C1362   1.468       .  S
C1334      C1618   1.498       .  S
N1335      C1350   1.334       .  A
N1335     Co1357   2.059       .  S
C1336      N1364   1.336       .  A
C1336      C1339   1.454       .  S
C1336      H1370   1.081       .  S
C1339      N1360   1.358       .  A
C1339      C1627   1.489       .  S
N1340      N1346   1.318       .  A
N1341      C1367   1.344       .  A
N1341      N1343   1.323       .  A
N1341     Co1357   2.088       .  S
N1342      C1356   1.339       .  A
N1343      N1371   1.321       .  A
N1343     Co1361   2.076       .  S
H1344      C1367   1.082       .  S
H1345      C1362   1.081       .  S
N1347     Co1361   2.084       .  S
N1348      N1360   1.330       .  A
N1348      N1364   1.318       .  A
N1348     Co1357   2.097       .  S
C1349      N1353   1.349       .  A
C1349      C1363   1.468       .  S
C1349      C1639   1.500       .  S
C1350      C1369   1.456       .  S
C1350      H1354   1.080       .  S
N1351      C1362   1.344       .  A
N1351     Co1361   2.078       .  S
C1355      N1371   1.346       .  A
C1355      C1367   1.464       .  S
C1355      C1702   1.491       .  S
Co1357    Cl1368   2.453       .  S
N1358      C1369   1.344       .  A
C1359      C1603   1.452       .  S
Co1361    Cl1368   2.438       .  S
C1369      C1591   1.448       .  S
C1372      N1390   1.352       .  A
C1372      C1409   1.469       .  S
C1372      C1807   1.497       .  S
N1373      N1390   1.328       .  A
N1373      N1395   1.319       .  A
N1373     Co1410   2.105       .  S
C1374      N1399   1.336       .  A
C1374      C1412   1.455       .  S
C1374      H1419   1.081       .  S
H1375      C1416   1.077       .  S
C1376      N1400   1.337       .  A
C1376      C1380   1.460       .  S
C1376      H1405   1.078       .  S
Co1377     N1395   2.084       .  S
Co1377     N1385   2.079       .  S
Co1377     N1417   2.086       .  S
Co1377     N1393   2.069       .  S
Co1377    Cl1421   2.452       .  S
N1378      C1416   1.338       .  A
N1378      N1385   1.321       .  A
N1378     Co1379   2.083       .  S
Co1379     N1382   2.091       .  S
Co1379     N1399   2.070       .  S
Co1379     N1386   2.096       .  S
Co1379    Cl1421   2.437       .  S
C1380      N1418   1.357       .  A
C1380      C1786   1.493       .  S
N1381      N1388   1.317       .  A
N1381      N1411   1.316       .  A
N1381     Co1414   2.060       .  S
N1382      N1400   1.317       .  A
N1382      N1418   1.330       .  A
N1383      C1412   1.343       .  A
N1383      N1393   1.317       .  A
H1384      C1409   1.081       .  S
N1385      N1406   1.323       .  A
N1386      N1404   1.317       .  A
N1386      N1391   1.325       .  A
C1387      N1391   1.349       .  A
C1387      C1415   1.466       .  S
C1387      C1555   1.488       .  S
N1388      C1403   1.332       .  A
N1388     Co1410   2.064       .  S
C1389      N1417   1.337       .  A
C1389      C1392   1.459       .  S
C1389      H1423   1.079       .  S
C1392      N1413   1.359       .  A
C1392      C1570   1.499       .  S
N1393      N1399   1.318       .  A
N1394      C1420   1.341       .  A
N1394      N1396   1.323       .  A
N1394     Co1410   2.077       .  S
N1395      C1409   1.344       .  A
N1396      N1424   1.322       .  A
N1396     Co1414   2.084       .  S
H1397      C1420   1.081       .  S
H1398      C1415   1.081       .  S
N1400     Co1414   2.089       .  S
N1401      N1413   1.332       .  A
N1401      N1417   1.317       .  A
N1401     Co1410   2.098       .  S
C1402      N1406   1.351       .  A
C1402      C1416   1.471       .  S
C1402      C1579   1.504       .  S
C1403      C1422   1.457   1_556  S
C1403      H1407   1.080       .  S
N1404      C1415   1.343       .  A
N1404     Co1414   2.072       .  S
C1408      N1424   1.349       .  A
C1408      C1420   1.464       .  S
C1408      C1798   1.495       .  S
Co1410    Cl1421   2.442       .  S
N1411      C1422   1.345   1_556  A
C1412      C1594   1.448       .  S
Co1414    Cl1421   2.448       .  S
C1422      C1606   1.451       .  S
C1425      N1443   1.349       .  A
C1425      C1462   1.465       .  S
C1425      C1678   1.484       .  S
N1426      N1443   1.326       .  A
N1426      N1448   1.320       .  A
C1427      C1465   1.450   1_545  S
C1427      H1472   1.081       .  S
H1428      C1469   1.080       .  S
C1429      N1453   1.341       .  A
C1429      C1433   1.461       .  S
C1429      H1458   1.079   1_655  S
Co1430     N1448   2.081   1_554  S
Co1430     N1438   2.090       .  S
Co1430     N1446   2.070       .  S
N1431      C1469   1.340       .  A
N1431      N1438   1.322       .  A
N1431     Co2038   2.075       .  S
Co1432     N2037   2.075   1_545  S
Co1432     N1435   2.091   1_554  S
Co1432     N1452   2.061   1_545  S
C1433      N1471   1.357       .  A
C1433      C1654   1.498       .  S
N1434      N2047   1.317   1_545  A
N1434     Co1467   2.062       .  S
N1435      N1453   1.318       .  A
N1435      N1471   1.329       .  A
N1436      C2071   1.346       .  A
H1437      C1462   1.082       .  S
N1438      N1459   1.325       .  A
N1439      N1457   1.316       .  A
N1439      N1444   1.325       .  A
C1440      N1444   1.351       .  A
C1440      C1468   1.468       .  S
C1440      C1630   1.493       .  S
N1441      N2040   1.317       .  A
N1441     Co1463   2.076       .  S
C1442      N1470   1.340       .  A
C1442      C1445   1.454       .  S
C1442      H1476   1.081       .  S
C1445      N1466   1.359       .  A
C1445      C1615   1.494       .  S
N1446      N2058   1.318       .  A
N1447      C1473   1.341       .  A
N1447      N1449   1.322       .  A
N1447     Co2069   2.086   1_545  S
N1448      C1462   1.345       .  A
N1449      N1477   1.322       .  A
N1449     Co1467   2.079       .  S
H1450      C1473   1.081   1_565  S
H1451      C1468   1.080       .  S
N1452      N2052   1.318       .  A
N1454      N1466   1.333       .  A
N1454      N1470   1.319       .  A
N1454     Co1463   2.106   1_554  S
C1455      N1459   1.353       .  A
C1455      C1469   1.464       .  S
C1455      C1642   1.499       .  S
C1456      C1475   1.459       .  S
C1456      H1460   1.081       .  S
N1457      C1468   1.342       .  A
N1457     Co1467   2.073   1_554  S
C1461      N1477   1.348       .  A
C1461      C1473   1.468       .  S
C1461      C1663   1.490       .  S
Co1463     N2053   2.086       .  S
Co1463    Cl2080   2.443   1_556  S
N1464      C2081   1.343       .  A
C1465      N2042   1.346       .  A
C1465      C1546   1.441       .  S
Co1467    Cl1474   2.447   1_546  S
Cl1474    Co2069   2.443   1_554  S
C1475      N2070   1.343       .  A
C1475      C1534   1.446       .  S
C1478      N1496   1.350       .  A
C1478      C1515   1.471       .  S
C1478      C1774   1.495       .  S
N1479      N1496   1.325       .  A
N1479      N1501   1.317       .  A
C1480      C1518   1.458   1_545  S
C1480      H1525   1.080       .  S
H1481      C1522   1.082       .  S
C1482      N1506   1.340       .  A
C1482      C1486   1.457       .  S
C1482      H1511   1.080   1_655  S
Co1483     N1501   2.078       .  S
Co1483     N1491   2.071       .  S
Co1483     N1499   2.068       .  S
Co1483    Cl2133   2.439       .  S
N1484      C1522   1.342       .  A
N1484      N1491   1.322       .  A
N1484     Co2091   2.087       .  S
Co1485     N2090   2.087   1_545  S
Co1485     N1488   2.097       .  S
Co1485     N1505   2.071       .  S
Co1485    Cl1527   2.446       .  S
C1486      N1524   1.356       .  A
C1486      C1747   1.487       .  S
N1487      N2100   1.317   1_545  A
N1487     Co1520   2.073       .  S
N1488      N1506   1.319       .  A
N1488      N1524   1.330       .  A
N1489      C2124   1.342       .  A
H1490      C1515   1.080       .  S
N1491      N1512   1.322       .  A
N1492      N1510   1.316       .  A
N1492      N1497   1.327       .  A
C1493      N1497   1.353       .  A
C1493      C1521   1.471       .  S
C1493      C1567   1.502       .  S
N1494      N2093   1.317       .  A
N1494     Co1516   2.055       .  S
C1495      N1523   1.334       .  A
C1495      C1498   1.455       .  S
C1495      H1529   1.078       .  S
C1498      N1519   1.358       .  A
C1498      C1558   1.490       .  S
N1499      N2111   1.318       .  A
N1500      C1526   1.341       .  A
N1500      N1502   1.323       .  A
N1500     Co2122   2.081   1_545  S
N1501      C1515   1.344       .  A
N1502      N1530   1.322       .  A
N1502     Co1520   2.084       .  S
H1503      C1526   1.080   1_565  S
H1504      C1521   1.079       .  S
N1505      N2105   1.318   1_545  A
N1507      N1519   1.330       .  A
N1507      N1523   1.316       .  A
N1507     Co1516   2.089       .  S
C1508      N1512   1.347       .  A
C1508      C1522   1.468       .  S
C1508      C1582   1.499       .  S
C1509      C1528   1.448       .  S
C1509      H1513   1.081       .  S
N1510      C1521   1.343       .  A
N1510     Co1520   2.080       .  S
C1514      N1530   1.349       .  A
C1514      C1526   1.467       .  S
C1514      C1762   1.494       .  S
Co1516     N2106   2.081       .  S
N1517      C2134   1.348       .  A
C1518      N2095   1.342       .  A
C1518      C1531   1.446   1_565  S
Cl1527    Co2089   2.439   1_545  S
C1528      N2123   1.348       .  A
C1528      C1543   1.441       .  S
C1531      C1536   1.410       .  A
C1532      H1537   1.084       .  S
C1532      C2139   1.390       .  A
C1533      C2138   1.390       .  A
C1533      C1534   1.410   1_655  A
C1533      O1538   1.372       .  S
C1535      H1539   1.084       .  S
C1535      C1536   1.391       .  A
C1536      O1540   1.372       .  S
O1538      H1542   0.992       .  S
O1540      H1541   0.992       .  S
C1543      C1548   1.408   1_455  A
C1544      H1549   1.084       .  S
C1544      C1545   1.390       .  A
C1545      C1546   1.408   1_545  A
C1545      O1550   1.372       .  S
C1547      H1551   1.084       .  S
C1547      C1548   1.389       .  A
C1548      O1552   1.373       .  S
O1550      H1554   0.991       .  S
O1552      H1553   0.992       .  S
C1555      C1556   1.401       .  A
C1555      C1560   1.414       .  A
C1556      H1561   1.082       .  S
C1556      C1557   1.400       .  A
C1557      C1558   1.414       .  A
C1557      O1562   1.371       .  S
C1558      C1559   1.405       .  A
C1559      H1563   1.083       .  S
C1559      C1560   1.406       .  A
C1560      O1564   1.372       .  S
O1562      H1566   0.993       .  S
O1564      H1565   0.992       .  S
C1567      C1568   1.412       .  A
C1567      C1572   1.412       .  A
C1568      H1573   1.083       .  S
C1568      C1569   1.410       .  A
C1569      C1570   1.411       .  A
C1569      O1574   1.371       .  S
C1570      C1571   1.407       .  A
C1571      H1575   1.081       .  S
C1571      C1572   1.401       .  A
C1572      O1576   1.370       .  S
O1574      H1578   0.992       .  S
O1576      H1577   0.991       .  S
C1579      C1580   1.408       .  A
C1579      C1584   1.417       .  A
C1580      H1585   1.084       .  S
C1580      C1581   1.406       .  A
C1581      C1582   1.417       .  A
C1581      O1586   1.372       .  S
C1582      C1583   1.400       .  A
C1583      H1587   1.077       .  S
C1583      C1584   1.401       .  A
C1584      O1588   1.365       .  S
O1586      H1590   0.992       .  S
O1588      H1589   0.992       .  S
C1591      C1592   1.395       .  A
C1591      C1596   1.407       .  A
C1592      H1597   1.084       .  S
C1592      C1593   1.392       .  A
C1593      C1594   1.407       .  A
C1593      O1598   1.371       .  S
C1594      C1595   1.394       .  A
C1595      H1599   1.084       .  S
C1595      C1596   1.390       .  A
C1596      O1600   1.370       .  S
O1598      H1602   0.990       .  S
O1600      H1601   0.989       .  S
C1603      C1604   1.404       .  A
C1603      C1608   1.402       .  A
C1604      H1609   1.083       .  S
C1604      C1605   1.389       .  A
C1605      C1606   1.400       .  A
C1605      O1610   1.372       .  S
C1606      C1607   1.403       .  A
C1607      H1611   1.083       .  S
C1607      C1608   1.388       .  A
C1608      O1612   1.372       .  S
O1610      H1614   0.990       .  S
O1612      H1613   0.992       .  S
C1615      C1616   1.405       .  A
C1615      C1620   1.410       .  A
C1616      H1621   1.084       .  S
C1616      C1617   1.405       .  A
C1617      C1618   1.413       .  A
C1617      O1622   1.371       .  S
C1618      C1619   1.409       .  A
C1619      H1623   1.084       .  S
C1619      C1620   1.410       .  A
C1620      O1624   1.370       .  S
O1622      H1626   0.992       .  S
O1624      H1625   0.992       .  S
C1627      C1628   1.405       .  A
C1627      C1632   1.408       .  A
C1628      H1633   1.083       .  S
C1628      C1629   1.401       .  A
C1629      C1630   1.413       .  A
C1629      O1634   1.371       .  S
C1630      C1631   1.409       .  A
C1631      H1635   1.083       .  S
C1631      C1632   1.405       .  A
C1632      O1636   1.370       .  S
O1634      H1638   0.992       .  S
O1636      H1637   0.992       .  S
C1639      C1640   1.410       .  A
C1639      C1644   1.411       .  A
C1640      H1645   1.081       .  S
C1640      C1641   1.408       .  A
C1641      C1642   1.413       .  A
C1641      O1646   1.372       .  S
C1642      C1643   1.408       .  A
C1643      H1647   1.083       .  S
C1643      C1644   1.403       .  A
C1644      O1648   1.369       .  S
O1646      H1650   0.992       .  S
O1648      H1649   0.992       .  S
C1651      C1652   1.410       .  A
C1651      C1656   1.411       .  A
C1652      H1657   1.082       .  S
C1652      C1653   1.406       .  A
C1653      C1654   1.410       .  A
C1653      O1658   1.371       .  S
C1654      C1655   1.409       .  A
C1655      H1659   1.081       .  S
C1655      C1656   1.405       .  A
C1656      O1660   1.371       .  S
O1658      H1662   0.992       .  S
O1660      H1661   0.992       .  S
C1663      C1664   1.409       .  A
C1663      C1668   1.410       .  A
C1664      H1669   1.082   1_545  S
C1664      C1665   1.401       .  A
C1665      C1666   1.405       .  A
C1665      O1670   1.367       .  S
C1666      C1667   1.409       .  A
C1667      H1671   1.082       .  S
C1667      C1668   1.406       .  A
C1668      O1672   1.372       .  S
O1670      H1674   0.991       .  S
O1672      H1673   0.992       .  S
C1675      C1676   1.405       .  A
C1675      C1680   1.411       .  A
C1676      H1681   1.084       .  S
C1676      C1677   1.404       .  A
C1677      C1678   1.410       .  A
C1677      O1682   1.371       .  S
C1678      C1679   1.404       .  A
C1679      H1683   1.084       .  S
C1679      C1680   1.405       .  A
C1680      O1684   1.372       .  S
O1682      H1686   0.992       .  S
O1684      H1685   0.991       .  S
C1687      C2294   1.400   1_545  A
C1687      C1692   1.416       .  A
C1688      H1693   1.084       .  S
C1688      C2293   1.400       .  A
C1688      C1689   1.404       .  A
C1689      C1690   1.421       .  A
C1689      O1694   1.370       .  S
C1690      C2297   1.404       .  A
C1691      H1695   1.083       .  S
C1691      C2296   1.404   1_545  A
C1691      C1692   1.407       .  A
C1692      O1696   1.370       .  S
O1694      H1698   0.992       .  S
O1696      H1697   0.992       .  S
C1699      C1704   1.421       .  A
C1700      H1705   1.084       .  S
C1700      C1701   1.402       .  A
C1701      C1702   1.419       .  A
C1701      O1706   1.371       .  S
C1703      H1707   1.082       .  S
C1703      C1704   1.403       .  A
C1704      O1708   1.369       .  S
O1706      H1710   0.992       .  S
O1708      H1709   0.990       .  S
C1711      C1712   1.401       .  A
C1711      C1716   1.411       .  A
C1712      H1717   1.079       .  S
C1712      C1713   1.397       .  A
C1713      C1714   1.413       .  A
C1713      O1718   1.369       .  S
C1714      C1715   1.410       .  A
C1715      H1719   1.084       .  S
C1715      C1716   1.407       .  A
C1716      O1720   1.371       .  S
O1718      H1722   0.992       .  S
O1720      H1721   0.992       .  S
C1723      C1724   1.406       .  A
C1723      C1728   1.398       .  A
C1724      H1729   1.083       .  S
C1724      C1725   1.388       .  A
C1725      C1726   1.398       .  A
C1725      O1730   1.371       .  S
C1726      C1727   1.405       .  A
C1727      H1731   1.082       .  S
C1727      C1728   1.388       .  A
C1728      O1732   1.371       .  S
O1730      H1734   0.992       .  S
O1732      H1733   0.992       .  S
C1735      C1736   1.405       .  A
C1735      C1740   1.399       .  A
C1736      H1741   1.084       .  S
C1736      C1737   1.390       .  A
C1737      C1738   1.398       .  A
C1737      O1742   1.372       .  S
C1738      C1739   1.405       .  A
C1739      H1743   1.084       .  S
C1739      C1740   1.390       .  A
C1740      O1744   1.373       .  S
O1742      H1746   0.991       .  S
O1744      H1745   0.990       .  S
C1747      C1748   1.404       .  A
C1747      C1752   1.411       .  A
C1748      H1753   1.083       .  S
C1748      C1749   1.406       .  A
C1749      C1750   1.413       .  A
C1749      O1754   1.372       .  S
C1750      C1751   1.404       .  A
C1751      H1755   1.083       .  S
C1751      C1752   1.404       .  A
C1752      O1756   1.371       .  S
O1754      H1758   0.992       .  S
O1756      H1757   0.990       .  S
C1759      C1760   1.403       .  A
C1759      C1764   1.418       .  A
C1760      H1765   1.084       .  S
C1760      C1761   1.405       .  A
C1761      C1762   1.418       .  A
C1761      O1766   1.370       .  S
C1762      C1763   1.401       .  A
C1763      H1767   1.084       .  S
C1763      C1764   1.402       .  A
C1764      O1768   1.366       .  S
O1766      H1770   0.991   1_545  S
O1768      H1769   0.990       .  S
C1771      C1772   1.407       .  A
C1771      C1776   1.412       .  A
C1772      H1777   1.083       .  S
C1772      C1773   1.402       .  A
C1773      C1774   1.409       .  A
C1773      O1778   1.368       .  S
C1774      C1775   1.409       .  A
C1775      H1779   1.083       .  S
C1775      C1776   1.407       .  A
C1776      O1780   1.371       .  S
O1778      H1782   0.992       .  S
O1780      H1781   0.992       .  S
C1783      C1784   1.404       .  A
C1783      C1788   1.413       .  A
C1784      H1789   1.082       .  S
C1784      C2391   1.401   1_545  A
C1785      C2390   1.401       .  A
C1785      C1786   1.411   1_554  A
C1785      O1790   1.369       .  S
C1786      C2393   1.406       .  A
C1787      H2397   1.083       .  S
C1787      C2392   1.406       .  A
C1787      C1788   1.409   1_566  A
C1788      O1792   1.372       .  S
O1790      H1794   0.991       .  S
H1791      C2393   1.083       .  S
O1792      H1793   0.991   1_554  S
C1795      C1796   1.409       .  A
C1796      H1801   1.083       .  S
C1796      C1797   1.400   1_554  A
C1797      O1802   1.368       .  S
C1798      C1799   1.412       .  A
C1799      H1803   1.081       .  S
C1799      C1800   1.406   1_556  A
C1800      O1804   1.371       .  S
O1802      H1806   0.991   1_655  S
O1804      H1805   0.992       .  S
C1807      C1808   1.412   1_556  A
C1807      C1812   1.409       .  A
C1808      H1813   1.084       .  S
C1808      C1809   1.412       .  A
C1809      C1810   1.411       .  A
C1809      O1814   1.371       .  S
C1810      C1811   1.410       .  A
C1811      H1815   1.081   1_554  S
C1811      C1812   1.403   1_554  A
C1812      O1816   1.372       .  S
O1814      H1818   0.991       .  S
O1816      H1817   0.992       .  S
C1819      N1837   1.347       .  A
C1819      C1856   1.449       .  S
C1819      C2332   1.450   1_554  S
N1820      N1837   1.319       .  A
N1820      N1842   1.318       .  A
N1820     Co1857   2.073       .  S
C1821      N1846   1.340       .  A
C1821      C1859   1.458       .  S
C1821      H1866   1.079       .  S
H1822      C1863   1.081       .  S
C1823      N1847   1.340       .  A
C1823      C1827   1.467       .  S
C1823      H1852   1.079       .  S
Co1824     N1842   2.051       .  S
Co1824     N1832   2.105       .  S
Co1824     N1864   2.079       .  S
Co1824     N1840   2.085       .  S
Co1824    Cl1868   2.446       .  S
N1825      C1863   1.343       .  A
N1825      N1832   1.318       .  A
N1825     Co1826   2.075       .  S
Co1826     N1829   2.078       .  S
Co1826     N1846   2.091       .  S
Co1826     N1833   2.054       .  S
Co1826    Cl1868   2.448       .  S
C1827      N1865   1.349       .  A
C1827      C2365   1.497       .  S
N1828      N1835   1.318       .  A
N1828      N1858   1.333       .  A
N1828     Co1861   2.106       .  S
N1829      N1847   1.322       .  A
N1829      N1865   1.323       .  A
N1830      C1859   1.356       .  A
N1830      N1840   1.328       .  A
H1831      C1856   1.081       .  S
N1832      N1853   1.327       .  A
N1833      N1851   1.318       .  A
N1833      N1838   1.315       .  A
C1834      N1838   1.340       .  A
C1834      C1862   1.460       .  S
C1834      C2341   1.447       .  S
N1835      C1850   1.337       .  A
N1835     Co1857   2.089       .  S
C1836      N1864   1.341       .  A
C1836      C1839   1.463       .  S
C1836      H1870   1.082       .  S
C1839      N1860   1.351       .  A
C1839      C2401   1.492       .  S
N1840      N1846   1.317       .  A
N1841      C1867   1.346       .  A
N1841      N1843   1.318       .  A
N1841     Co1857   2.080       .  S
N1842      C1856   1.329       .  A
N1843      N1871   1.324       .  A
N1843     Co1861   2.100       .  S
H1844      C1867   1.080       .  S
H1845      C1862   1.081       .  S
N1847     Co1861   2.082       .  S
N1848      N1860   1.323       .  A
N1848      N1864   1.322       .  A
N1848     Co1857   2.086       .  S
C1849      N1853   1.351       .  A
C1849      C1863   1.466       .  S
C1849      C2389   1.492       .  S
C1850      C1869   1.459       .  S
C1850      H1854   1.080       .  S
N1851      C1862   1.339       .  A
N1851     Co1861   2.083       .  S
C1855      N1871   1.351       .  A
C1855      C1867   1.470       .  S
C1855      C2377   1.495       .  S
Co1857    Cl1868   2.448       .  S
N1858      C1869   1.361       .  A
C1859      C2356   1.489       .  S
Co1861    Cl1868   2.441       .  S
C1869      C2416   1.501       .  S
C1872      N1890   1.349       .  A
C1872      C1909   1.469       .  S
C1872      C2293   1.494       .  S
N1873      N1890   1.327       .  A
N1873      N1895   1.318       .  A
N1873     Co1910   2.089       .  S
C1874      N1899   1.326       .  A
C1874      C1912   1.445       .  S
C1874      H1919   1.082       .  S
H1875      C1916   1.082       .  S
C1876      N1900   1.338       .  A
C1876      C1880   1.459       .  S
C1876      H1905   1.080       .  S
Co1877     N1895   2.095       .  S
Co1877     N1885   2.079       .  S
Co1877     N1917   2.091       .  S
Co1877     N1893   2.088       .  S
Co1877    Cl1921   2.436       .  S
N1878      C1916   1.343       .  A
N1878      N1885   1.323       .  A
N1878     Co1879   2.079       .  S
Co1879     N1882   2.073       .  S
Co1879     N1899   2.035       .  S
Co1879     N1886   2.101       .  S
Co1879    Cl1921   2.450       .  S
C1880      N1918   1.353       .  A
C1880      C2317   1.488       .  S
N1881      N1888   1.317       .  A
N1881      N1911   1.315       .  A
N1881     Co1914   2.052       .  S
N1882      N1900   1.318       .  A
N1882      N1918   1.328       .  A
N1883      C1912   1.352       .  A
N1883      N1893   1.321       .  A
H1884      C1909   1.082       .  S
N1885      N1906   1.320       .  A
N1886      N1904   1.319       .  A
N1886      N1891   1.326       .  A
C1887      N1891   1.349       .  A
C1887      C1915   1.464       .  S
C1887      C2281   1.486       .  S
N1888      C1903   1.337       .  A
N1888     Co1910   2.078       .  S
C1889      N1917   1.342       .  A
C1889      C1892   1.463       .  S
C1889      H1923   1.080       .  S
C1892      N1913   1.357       .  A
C1892      C2257   1.498       .  S
N1893      N1899   1.317       .  A
N1894      C1920   1.338       .  A
N1894      N1896   1.322       .  A
N1894     Co1910   2.074       .  S
N1895      C1909   1.347       .  A
N1896      N1924   1.323       .  A
N1896     Co1914   2.086       .  S
H1897      C1920   1.081       .  S
H1898      C1915   1.081       .  S
N1900     Co1914   2.096       .  S
N1901      N1913   1.329       .  A
N1901      N1917   1.317       .  A
N1901     Co1910   2.094       .  S
C1902      N1906   1.346       .  A
C1902      C1916   1.465       .  S
C1902      C2272   1.490       .  S
C1903      C1922   1.458       .  S
C1903      H1907   1.080       .  S
N1904      C1915   1.344       .  A
N1904     Co1914   2.075       .  S
C1908      N1924   1.351       .  A
C1908      C1920   1.462       .  S
C1908      C2305   1.491       .  S
Co1910    Cl1921   2.443       .  S
N1911      C1922   1.341       .  A
C1912      C2329   1.450       .  S
Co1914    Cl1921   2.443       .  S
C1922      C2344   1.447       .  S
C1925      N1943   1.353       .  A
C1925      C1962   1.467       .  S
C1925      C2320   1.493       .  S
N1926      N1943   1.326       .  A
N1926      N1948   1.317       .  A
N1926     Co1963   2.102       .  S
C1927      N1952   1.332       .  A
C1927      C1965   1.454       .  S
C1927      H1972   1.080       .  S
H1928      C1969   1.081       .  S
C1929      N1953   1.336       .  A
C1929      C1933   1.458       .  S
C1929      H1958   1.077       .  S
Co1930     N1948   2.069       .  S
Co1930     N1938   2.081       .  S
Co1930     N1970   2.082       .  S
Co1930     N1946   2.064       .  S
Co1930    Cl1974   2.437       .  S
N1931      C1969   1.343       .  A
N1931      N1938   1.322       .  A
N1931     Co1932   2.081       .  S
Co1932     N1935   2.104       .  S
Co1932     N1952   2.062       .  S
Co1932     N1939   2.108       .  S
Co1932    Cl1974   2.453       .  S
C1933      N1971   1.362       .  A
C1933      C2296   1.502       .  S
N1934      N1941   1.318       .  A
N1934      N1964   1.318       .  A
N1934     Co1967   2.076       .  S
N1935      N1953   1.317       .  A
N1935      N1971   1.332       .  A
N1936      C1965   1.346       .  A
N1936      N1946   1.317       .  A
H1937      C1962   1.079       .  S
N1938      N1959   1.322       .  A
N1939      N1957   1.317       .  A
N1939      N1944   1.328       .  A
C1940      N1944   1.352       .  A
C1940      C1968   1.468       .  S
C1940      C2224   1.498       .  S
N1941      C1956   1.334       .  A
N1941     Co1963   2.059       .  S
C1942      N1970   1.336       .  A
C1942      C1945   1.454       .  S
C1942      H1976   1.081       .  S
C1945      N1966   1.358       .  A
C1945      C2233   1.489       .  S
N1946      N1952   1.318       .  A
N1947      C1973   1.344       .  A
N1947      N1949   1.323       .  A
N1947     Co1963   2.088       .  S
N1948      C1962   1.339       .  A
N1949      N1977   1.321       .  A
N1949     Co1967   2.076       .  S
H1950      C1973   1.082       .  S
H1951      C1968   1.081       .  S
N1953     Co1967   2.084       .  S
N1954      N1966   1.330       .  A
N1954      N1970   1.318       .  A
N1954     Co1963   2.097       .  S
C1955      N1959   1.349       .  A
C1955      C1969   1.468       .  S
C1955      C2245   1.500       .  S
C1956      C1975   1.456       .  S
C1956      H1960   1.080       .  S
N1957      C1968   1.344       .  A
N1957     Co1967   2.078       .  S
C1961      N1977   1.346       .  A
C1961      C1973   1.464       .  S
C1961      C2308   1.491       .  S
Co1963    Cl1974   2.453       .  S
N1964      C1975   1.344       .  A
C1965      C2209   1.452       .  S
Co1967    Cl1974   2.438       .  S
C1975      C2197   1.448       .  S
C1978      N1996   1.352       .  A
C1978      C2015   1.469       .  S
C1978      C2413   1.497       .  S
N1979      N1996   1.328       .  A
N1979      N2001   1.319       .  A
N1979     Co2016   2.105       .  S
C1980      N2005   1.336       .  A
C1980      C2018   1.455       .  S
C1980      H2025   1.081       .  S
H1981      C2022   1.077       .  S
C1982      N2006   1.337       .  A
C1982      C1986   1.460       .  S
C1982      H2011   1.078       .  S
Co1983     N2001   2.084       .  S
Co1983     N1991   2.079       .  S
Co1983     N2023   2.086       .  S
Co1983     N1999   2.069       .  S
Co1983    Cl2027   2.452       .  S
N1984      C2022   1.338       .  A
N1984      N1991   1.321       .  A
N1984     Co1985   2.083       .  S
Co1985     N1988   2.091       .  S
Co1985     N2005   2.070       .  S
Co1985     N1992   2.096       .  S
Co1985    Cl2027   2.437       .  S
C1986      N2024   1.357       .  A
C1986      C2392   1.493       .  S
N1987      N1994   1.317       .  A
N1987      N2017   1.316       .  A
N1987     Co2020   2.060       .  S
N1988      N2006   1.317       .  A
N1988      N2024   1.330       .  A
N1989      C2018   1.343       .  A
N1989      N1999   1.317       .  A
H1990      C2015   1.081       .  S
N1991      N2012   1.323       .  A
N1992      N2010   1.317       .  A
N1992      N1997   1.325       .  A
C1993      N1997   1.349       .  A
C1993      C2021   1.466       .  S
C1993      C2161   1.488       .  S
N1994      C2009   1.332       .  A
N1994     Co2016   2.064       .  S
C1995      N2023   1.337       .  A
C1995      C1998   1.459       .  S
C1995      H2029   1.079       .  S
C1998      N2019   1.359       .  A
C1998      C2176   1.499       .  S
N1999      N2005   1.318       .  A
N2000      C2026   1.341       .  A
N2000      N2002   1.323       .  A
N2000     Co2016   2.077       .  S
N2001      C2015   1.344       .  A
N2002      N2030   1.322       .  A
N2002     Co2020   2.084       .  S
H2003      C2026   1.081       .  S
H2004      C2021   1.081       .  S
N2006     Co2020   2.089       .  S
N2007      N2019   1.332       .  A
N2007      N2023   1.317       .  A
N2007     Co2016   2.098       .  S
C2008      N2012   1.351       .  A
C2008      C2022   1.471       .  S
C2008      C2185   1.504       .  S
C2009      C2028   1.457   1_556  S
C2009      H2013   1.080       .  S
N2010      C2021   1.343       .  A
N2010     Co2020   2.072       .  S
C2014      N2030   1.349       .  A
C2014      C2026   1.464       .  S
C2014      C2404   1.495       .  S
Co2016    Cl2027   2.442       .  S
N2017      C2028   1.345   1_556  A
C2018      C2200   1.448       .  S
Co2020    Cl2027   2.448       .  S
C2028      C2212   1.451       .  S
C2031      N2049   1.349       .  A
C2031      C2068   1.465       .  S
C2031      C2284   1.484       .  S
N2032      N2049   1.326       .  A
N2032      N2054   1.320       .  A
C2033      C2071   1.450       .  S
C2033      H2078   1.081       .  S
H2034      C2075   1.080   1_545  S
C2035      N2059   1.341       .  A
C2035      C2039   1.461       .  S
C2035      H2064   1.079   1_655  S
Co2036     N2054   2.081   1_554  S
Co2036     N2044   2.090       .  S
Co2036     N2052   2.070       .  S
N2037      C2075   1.340       .  A
N2037      N2044   1.322       .  A
Co2038     N2041   2.091   1_554  S
Co2038     N2058   2.061       .  S
C2039      N2077   1.357       .  A
C2039      C2260   1.498       .  S
N2040     Co2073   2.062       .  S
N2041      N2059   1.318       .  A
N2041      N2077   1.329       .  A
H2043      C2068   1.082       .  S
N2044      N2065   1.325       .  A
N2045      N2063   1.316       .  A
N2045      N2050   1.325       .  A
C2046      N2050   1.351       .  A
C2046      C2074   1.468       .  S
C2046      C2236   1.493       .  S
N2047     Co2069   2.076       .  S
C2048      N2076   1.340       .  A
C2048      C2051   1.454       .  S
C2048      H2082   1.081       .  S
C2051      N2072   1.359       .  A
C2051      C2221   1.494       .  S
N2053      C2079   1.341       .  A
N2053      N2055   1.322       .  A
N2054      C2068   1.345       .  A
N2055      N2083   1.322       .  A
N2055     Co2073   2.079       .  S
H2056      C2079   1.081       .  S
H2057      C2074   1.080       .  S
N2060      N2072   1.333       .  A
N2060      N2076   1.319       .  A
N2060     Co2069   2.106   1_554  S
C2061      N2065   1.353       .  A
C2061      C2075   1.464       .  S
C2061      C2248   1.499       .  S
C2062      C2081   1.459   1_565  S
C2062      H2066   1.081       .  S
N2063      C2074   1.342       .  A
N2063     Co2073   2.073   1_554  S
C2067      N2083   1.348       .  A
C2067      C2079   1.468       .  S
C2067      C2269   1.490       .  S
C2071      C2152   1.441       .  S
Co2073    Cl2080   2.447   1_556  S
C2081      C2140   1.446       .  S
C2084      N2102   1.350       .  A
C2084      C2121   1.471       .  S
C2084      C2380   1.495       .  S
N2085      N2102   1.325       .  A
N2085      N2107   1.317       .  A
C2086      C2124   1.458       .  S
C2086      H2131   1.080       .  S
H2087      C2128   1.082   1_545  S
C2088      N2112   1.340       .  A
C2088      C2092   1.457       .  S
C2088      H2117   1.080   1_655  S
Co2089     N2107   2.078       .  S
Co2089     N2097   2.071       .  S
Co2089     N2105   2.068       .  S
N2090      C2128   1.342       .  A
N2090      N2097   1.322       .  A
Co2091     N2094   2.097       .  S
Co2091     N2111   2.071       .  S
Co2091    Cl2133   2.446       .  S
C2092      N2130   1.356       .  A
C2092      C2353   1.487       .  S
N2093     Co2126   2.073       .  S
N2094      N2112   1.319       .  A
N2094      N2130   1.330       .  A
H2096      C2121   1.080       .  S
N2097      N2118   1.322       .  A
N2098      N2116   1.316       .  A
N2098      N2103   1.327       .  A
C2099      N2103   1.353       .  A
C2099      C2127   1.471       .  S
C2099      C2173   1.502       .  S
N2100     Co2122   2.055       .  S
C2101      N2129   1.334       .  A
C2101      C2104   1.455       .  S
C2101      H2135   1.078       .  S
C2104      N2125   1.358       .  A
C2104      C2164   1.490       .  S
N2106      C2132   1.341       .  A
N2106      N2108   1.323       .  A
N2107      C2121   1.344       .  A
N2108      N2136   1.322       .  A
N2108     Co2126   2.084       .  S
H2109      C2132   1.080       .  S
H2110      C2127   1.079       .  S
N2113      N2125   1.330       .  A
N2113      N2129   1.316       .  A
N2113     Co2122   2.089       .  S
C2114      N2118   1.347       .  A
C2114      C2128   1.468       .  S
C2114      C2188   1.499       .  S
C2115      C2134   1.448   1_565  S
C2115      H2119   1.081       .  S
N2116      C2127   1.343       .  A
N2116     Co2126   2.080       .  S
C2120      N2136   1.349       .  A
C2120      C2132   1.467       .  S
C2120      C2368   1.494       .  S
C2124      C2137   1.446       .  S
C2134      C2149   1.441       .  S
C2137      C2142   1.410       .  A
C2138      H2143   1.084       .  S
C2139      C2140   1.410   1_665  A
C2139      O2144   1.372       .  S
C2141      H2145   1.084       .  S
C2141      C2142   1.391       .  A
C2142      O2146   1.372       .  S
O2144      H2148   0.992       .  S
O2146      H2147   0.992       .  S
C2149      C2154   1.408   1_445  A
C2150      H2155   1.084       .  S
C2150      C2151   1.390       .  A
C2151      C2152   1.408       .  A
C2151      O2156   1.372       .  S
C2153      H2157   1.084       .  S
C2153      C2154   1.389       .  A
C2154      O2158   1.373       .  S
O2156      H2160   0.991       .  S
O2158      H2159   0.992   1_565  S
C2161      C2162   1.401       .  A
C2161      C2166   1.414       .  A
C2162      H2167   1.082       .  S
C2162      C2163   1.400       .  A
C2163      C2164   1.414       .  A
C2163      O2168   1.371       .  S
C2164      C2165   1.405       .  A
C2165      H2169   1.083       .  S
C2165      C2166   1.406       .  A
C2166      O2170   1.372       .  S
O2168      H2172   0.993       .  S
O2170      H2171   0.992       .  S
C2173      C2174   1.412       .  A
C2173      C2178   1.412       .  A
C2174      H2179   1.083       .  S
C2174      C2175   1.410       .  A
C2175      C2176   1.411       .  A
C2175      O2180   1.371       .  S
C2176      C2177   1.407       .  A
C2177      H2181   1.081       .  S
C2177      C2178   1.401       .  A
C2178      O2182   1.370       .  S
O2180      H2184   0.992       .  S
O2182      H2183   0.991       .  S
C2185      C2186   1.408       .  A
C2185      C2190   1.417       .  A
C2186      H2191   1.084       .  S
C2186      C2187   1.406       .  A
C2187      C2188   1.417       .  A
C2187      O2192   1.372       .  S
C2188      C2189   1.400       .  A
C2189      H2193   1.077       .  S
C2189      C2190   1.401       .  A
C2190      O2194   1.365       .  S
O2192      H2196   0.992       .  S
O2194      H2195   0.992       .  S
C2197      C2198   1.395       .  A
C2197      C2202   1.407       .  A
C2198      H2203   1.084       .  S
C2198      C2199   1.392       .  A
C2199      C2200   1.407       .  A
C2199      O2204   1.371       .  S
C2200      C2201   1.394       .  A
C2201      H2205   1.084       .  S
C2201      C2202   1.390       .  A
C2202      O2206   1.370       .  S
O2204      H2208   0.990       .  S
O2206      H2207   0.989       .  S
C2209      C2210   1.404       .  A
C2209      C2214   1.402       .  A
C2210      H2215   1.083       .  S
C2210      C2211   1.389       .  A
C2211      C2212   1.400       .  A
C2211      O2216   1.372       .  S
C2212      C2213   1.403       .  A
C2213      H2217   1.083       .  S
C2213      C2214   1.388       .  A
C2214      O2218   1.372       .  S
O2216      H2220   0.990       .  S
O2218      H2219   0.992       .  S
C2221      C2222   1.405       .  A
C2221      C2226   1.410       .  A
C2222      H2227   1.084       .  S
C2222      C2223   1.405       .  A
C2223      C2224   1.413       .  A
C2223      O2228   1.371       .  S
C2224      C2225   1.409       .  A
C2225      H2229   1.084       .  S
C2225      C2226   1.410       .  A
C2226      O2230   1.370       .  S
O2228      H2232   0.992       .  S
O2230      H2231   0.992       .  S
C2233      C2234   1.405       .  A
C2233      C2238   1.408       .  A
C2234      H2239   1.083       .  S
C2234      C2235   1.401       .  A
C2235      C2236   1.413       .  A
C2235      O2240   1.371       .  S
C2236      C2237   1.409       .  A
C2237      H2241   1.083       .  S
C2237      C2238   1.405       .  A
C2238      O2242   1.370       .  S
O2240      H2244   0.992       .  S
O2242      H2243   0.992       .  S
C2245      C2246   1.410       .  A
C2245      C2250   1.411       .  A
C2246      H2251   1.081       .  S
C2246      C2247   1.408       .  A
C2247      C2248   1.413       .  A
C2247      O2252   1.372       .  S
C2248      C2249   1.408       .  A
C2249      H2253   1.083       .  S
C2249      C2250   1.403       .  A
C2250      O2254   1.369       .  S
O2252      H2256   0.992   1_565  S
O2254      H2255   0.992       .  S
C2257      C2258   1.410       .  A
C2257      C2262   1.411       .  A
C2258      H2263   1.082       .  S
C2258      C2259   1.406       .  A
C2259      C2260   1.410       .  A
C2259      O2264   1.371       .  S
C2260      C2261   1.409       .  A
C2261      H2265   1.081       .  S
C2261      C2262   1.405       .  A
C2262      O2266   1.371       .  S
O2264      H2268   0.992       .  S
O2266      H2267   0.992       .  S
C2269      C2270   1.409       .  A
C2269      C2274   1.410       .  A
C2270      H2275   1.082       .  S
C2270      C2271   1.401       .  A
C2271      C2272   1.405       .  A
C2271      O2276   1.367       .  S
C2272      C2273   1.409       .  A
C2273      H2277   1.082       .  S
C2273      C2274   1.406       .  A
C2274      O2278   1.372       .  S
O2276      H2280   0.991       .  S
O2278      H2279   0.992       .  S
C2281      C2282   1.405       .  A
C2281      C2286   1.411       .  A
C2282      H2287   1.084       .  S
C2282      C2283   1.404       .  A
C2283      C2284   1.410       .  A
C2283      O2288   1.371       .  S
C2284      C2285   1.404       .  A
C2285      H2289   1.084       .  S
C2285      C2286   1.405       .  A
C2286      O2290   1.372       .  S
O2288      H2292   0.992       .  S
O2290      H2291   0.991       .  S
C2293      C2298   1.416       .  A
C2294      H2299   1.084       .  S
C2294      C2295   1.404       .  A
C2295      C2296   1.421       .  A
C2295      O2300   1.370       .  S
C2297      H2301   1.083       .  S
C2297      C2298   1.407       .  A
C2298      O2302   1.370       .  S
O2300      H2304   0.992       .  S
O2302      H2303   0.992       .  S
C2305      C2310   1.421       .  A
C2306      H2311   1.084       .  S
C2306      C2307   1.402       .  A
C2307      C2308   1.419       .  A
C2307      O2312   1.371       .  S
C2309      H2313   1.082       .  S
C2309      C2310   1.403       .  A
C2310      O2314   1.369       .  S
O2312      H2316   0.992       .  S
O2314      H2315   0.990       .  S
C2317      C2318   1.401       .  A
C2317      C2322   1.411       .  A
C2318      H2323   1.079       .  S
C2318      C2319   1.397       .  A
C2319      C2320   1.413       .  A
C2319      O2324   1.369       .  S
C2320      C2321   1.410       .  A
C2321      H2325   1.084       .  S
C2321      C2322   1.407       .  A
C2322      O2326   1.371       .  S
O2324      H2328   0.992       .  S
O2326      H2327   0.992       .  S
C2329      C2330   1.406       .  A
C2329      C2334   1.398       .  A
C2330      H2335   1.083       .  S
C2330      C2331   1.388       .  A
C2331      C2332   1.398       .  A
C2331      O2336   1.371       .  S
C2332      C2333   1.405       .  A
C2333      H2337   1.082       .  S
C2333      C2334   1.388       .  A
C2334      O2338   1.371       .  S
O2336      H2340   0.992       .  S
O2338      H2339   0.992       .  S
C2341      C2342   1.405       .  A
C2341      C2346   1.399       .  A
C2342      H2347   1.084       .  S
C2342      C2343   1.390       .  A
C2343      C2344   1.398       .  A
C2343      O2348   1.372       .  S
C2344      C2345   1.405       .  A
C2345      H2349   1.084       .  S
C2345      C2346   1.390       .  A
C2346      O2350   1.373       .  S
O2348      H2352   0.991       .  S
O2350      H2351   0.990       .  S
C2353      C2354   1.404       .  A
C2353      C2358   1.411       .  A
C2354      H2359   1.083       .  S
C2354      C2355   1.406       .  A
C2355      C2356   1.413       .  A
C2355      O2360   1.372       .  S
C2356      C2357   1.404       .  A
C2357      H2361   1.083       .  S
C2357      C2358   1.404       .  A
C2358      O2362   1.371       .  S
O2360      H2364   0.992       .  S
O2362      H2363   0.990       .  S
C2365      C2366   1.403       .  A
C2365      C2370   1.418       .  A
C2366      H2371   1.084       .  S
C2366      C2367   1.405       .  A
C2367      C2368   1.418       .  A
C2367      O2372   1.370       .  S
C2368      C2369   1.401       .  A
C2369      H2373   1.084       .  S
C2369      C2370   1.402       .  A
C2370      O2374   1.366       .  S
O2372      H2376   0.991       .  S
O2374      H2375   0.990       .  S
C2377      C2378   1.407       .  A
C2377      C2382   1.412       .  A
C2378      H2383   1.083       .  S
C2378      C2379   1.402       .  A
C2379      C2380   1.409       .  A
C2379      O2384   1.368       .  S
C2380      C2381   1.409       .  A
C2381      H2385   1.083       .  S
C2381      C2382   1.407       .  A
C2382      O2386   1.371       .  S
O2384      H2388   0.992       .  S
O2386      H2387   0.992       .  S
C2389      C2390   1.404       .  A
C2389      C2394   1.413       .  A
C2390      H2395   1.082       .  S
C2391      C2392   1.411   1_554  A
C2391      O2396   1.369       .  S
C2393      C2394   1.409   1_556  A
C2394      O2398   1.372       .  S
O2396      H2400   0.991       .  S
O2398      H2399   0.991   1_554  S
C2401      C2402   1.409       .  A
C2402      H2407   1.083       .  S
C2402      C2403   1.400   1_554  A
C2403      O2408   1.368       .  S
C2404      C2405   1.412       .  A
C2405      H2409   1.081       .  S
C2405      C2406   1.406   1_556  A
C2406      O2410   1.371       .  S
O2408      H2412   0.991   1_655  S
O2410      H2411   0.992       .  S
C2413      C2414   1.412   1_556  A
C2413      C2418   1.409       .  A
C2414      H2419   1.084       .  S
C2414      C2415   1.412       .  A
C2415      C2416   1.411       .  A
C2415      O2420   1.371       .  S
C2416      C2417   1.410       .  A
C2417      H2421   1.081   1_554  S
C2417      C2418   1.403   1_554  A
C2418      O2422   1.372       .  S
O2420      H2424   0.991       .  S
O2422      H2423   0.992       .  S
