geometry optimzed in LAMMPS
_audit_creation_date              2020-11-30 
_audit_creation_method            'lammps2cif' 
_symmetry_space_group_name_H-M    'P1' 
_symmetry_Int_Tables_number       1 
_symmetry_cell_setting            triclinic 
loop_ 
_symmetry_equiv_pos_as_xyz 
  x,y,z 
_cell_length_a                    35.10417559 
_cell_length_b                    35.333188973472105 
_cell_length_c                    92.74576722974588 
_cell_angle_alpha                 90.0493257549682 
_cell_angle_beta                  89.82824783953467 
_cell_angle_gamma                 120.68723685502512 
loop_ 
_atom_site_label 
_atom_site_type_symbol 
_atom_site_fract_x 
_atom_site_fract_y 
_atom_site_fract_z 
_atom_site_charge 
O1          O  0.45880108  0.12383881  0.74668136    -0.57000
C2          C  0.43063875  0.22099590  0.75845246     0.75700
O3          O  0.36094464  0.12244527  0.72017748    -0.58100
C4          C  0.43708477  0.08275823  0.74434023     0.75600
C5          C  0.31498466  0.09336664  0.76138263     0.78000
Cd6        Cd  0.39554575  0.13624392  0.74430021     1.37500
O7          O  0.44514963  0.19553863  0.76131724    -0.57000
O8          O  0.35137520  0.09933804  0.76616654    -0.55800
C9          C  0.39543859  0.15105629  0.71361694     0.78000
O10         O  0.31531598  0.10484269  0.74842446    -0.58100
O11         O  0.40226781  0.20840160  0.74848396    -0.56600
O12         O  0.39598860  0.06636912  0.74227494    -0.56600
O13         O  0.42970846  0.17258275  0.72127448    -0.55800
O14         O  0.56454425  0.85817152  0.74768869    -0.57000
C15         C  0.59335151  0.76375630  0.76012206     0.75700
O16         O  0.65836271  0.84784083  0.71943251    -0.58100
C17         C  0.58498394  0.89817450  0.74387168     0.75600
C18         C  0.70972486  0.89426084  0.75862562     0.78000
Cd19       Cd  0.62659815  0.84506858  0.74367673     1.37500
O20         O  0.57685144  0.78815245  0.76146993    -0.57000
O21         O  0.67318687  0.88342536  0.76465755    -0.55800
C22         C  0.62171561  0.82284663  0.71330601     0.78000
O23         O  0.70812667  0.88502895  0.74536409    -0.58100
O24         O  0.62389289  0.77624710  0.75082735    -0.56600
O25         O  0.62500802  0.91392720  0.74014985    -0.56600
O26         O  0.58767926  0.80765586  0.72125932    -0.55800
C27         C  0.98955950  0.92785642  0.84188287     0.87300
C28         C  0.02927803  0.94146926  0.83209669    -0.52900
C29         C  0.04106908  0.97819381  0.82420140     0.10300
C30         C  0.01143926  0.99845911  0.82668690     0.21200
C31         C  0.00159289  0.96929833  0.85095558    -0.53600
C32         C  0.01269094  0.00645093  0.84305254     0.10400
C33         C  0.95268519  0.92422489  0.83196530    -0.53200
C34         C  0.96359088  0.96093576  0.82396712     0.10900
H35         H  0.04687928  0.92406441  0.83157908     0.15500
H36         H  0.02044899  0.02796603  0.82020921     0.01200
H37         H  0.99971228  0.96906896  0.86239030     0.15800
H38         H  0.91958332  0.89480080  0.83158579     0.15600
O39         O  0.14021471  0.43613152  0.90759106    -0.57000
C40         C  0.23924155  0.41303977  0.89186209     0.75700
O41         O  0.15832480  0.34428602  0.93233487    -0.58100
C42         C  0.09878876  0.41060251  0.90900341     0.75600
C43         C  0.11187805  0.29174836  0.89580374     0.78000
Cd44       Cd  0.15863327  0.37710050  0.90894966     1.37500
O45         O  0.20774053  0.41888985  0.88847326    -0.57000
O46         O  0.12004756  0.32614262  0.88902011    -0.55800
C47         C  0.17411318  0.37938588  0.93962269     0.78000
O48         O  0.12375464  0.29678397  0.90887306    -0.58100
O49         O  0.23510893  0.39365241  0.90372064    -0.56600
O50         O  0.08544428  0.36998214  0.90979101    -0.56600
O51         O  0.18495775  0.41416064  0.93257255    -0.55800
O52         O  0.84021470  0.49604251  0.90760298    -0.57000
C53         C  0.74770029  0.52395576  0.89271249     0.75700
O54         O  0.83184025  0.58872468  0.93505926    -0.58100
C55         C  0.88044869  0.51862035  0.91140771     0.75600
C56         C  0.86841299  0.64284871  0.89851729     0.78000
Cd57       Cd  0.82418419  0.55646980  0.91115181     1.37500
O58         O  0.78213067  0.52365013  0.88884538    -0.57000
O59         O  0.87660526  0.61346426  0.89454029    -0.55800
C60         C  0.80664160  0.55285376  0.94151270     0.78000
O61         O  0.84152665  0.63302939  0.90890158    -0.58100
O62         O  0.74659395  0.53452425  0.90567149    -0.56600
O63         O  0.89432504  0.55824800  0.91478586    -0.56600
O64         O  0.78819108  0.51844483  0.93380852    -0.55800
C65         C  0.50126250  0.48693891  0.82315625    -0.01600
C66         C  0.95030172  0.91241176  0.15264949     0.87300
C67         C  0.92586054  0.92852514  0.16233056    -0.52900
C68         C  0.95230579  0.96790578  0.16895086     0.10300
C69         C  0.00203122  0.98788864  0.16570557     0.21200
C70         C  0.97916369  0.95099939  0.14250766    -0.53600
C71         C  0.00572895  0.99043522  0.14913108     0.10400
C72         C  0.98314460  0.91160296  0.16349221    -0.53200
C73         C  0.01122956  0.95114084  0.16990430     0.10900
H74         H  0.89055122  0.90915856  0.16453555     0.15500
H75         H  0.02357830  0.01975505  0.17119495     0.01200
H76         H  0.97803523  0.94732753  0.13078469     0.15800
H77         H  0.98292111  0.88226737  0.16697726     0.15600
O78         O  0.21538815  0.76626893  0.22633682    -0.57000
C79         C  0.31888675  0.87616425  0.24365869     0.75700
O80         O  0.17743546  0.85530909  0.24499778    -0.58100
C81         C  0.17346268  0.74546419  0.22629929     0.75600
C82         C  0.20599516  0.79388918  0.27427955     0.78000
Cd83       Cd  0.22322274  0.82122361  0.24462207     1.37500
O84         O  0.29890478  0.83578446  0.24033001    -0.57000
O85         O  0.22132549  0.77734404  0.26559092    -0.55800
C86         C  0.18901195  0.87248337  0.23259894     0.78000
O87         O  0.19847231  0.82263964  0.26923559    -0.58100
O88         O  0.29434806  0.89106830  0.24740470    -0.56600
O89         O  0.15507388  0.75870189  0.23502090    -0.56600
O90         O  0.21821905  0.86785937  0.22613835    -0.55800
O91         O  0.76085669  0.17214500  0.22464000    -0.57000
C92         C  0.65482574  0.06642416  0.24318013     0.75700
O93         O  0.79227119  0.08226648  0.24412690    -0.58100
C94         C  0.79971329  0.20161965  0.22815313     0.75600
C95         C  0.76643881  0.14497685  0.27477571     0.78000
Cd96       Cd  0.75059380  0.12156165  0.24454209     1.37500
O97         O  0.67449614  0.10745626  0.24089815    -0.57000
O98         O  0.75369874  0.16409317  0.26618191    -0.55800
C99         C  0.79048975  0.07716280  0.23057614     0.78000
O100        O  0.77206622  0.11531991  0.26930961    -0.58100
O101        O  0.67945440  0.05094232  0.24597408    -0.56600
O102        O  0.81503277  0.19498398  0.23958420    -0.56600
O103        O  0.76897778  0.09117485  0.22379366    -0.55800
C104        C  0.97993839  0.47348309  0.16310622    -0.01600
O105        O  0.73941069  0.50654586  0.09544590    -0.57000
C106        C  0.63559251  0.51875315  0.08006538     0.75700
O107        O  0.76152038  0.63551057  0.07846171    -0.58100
C108        C  0.78135355  0.52767756  0.09467617     0.75600
C109        C  0.75170277  0.55103288  0.04842196     0.78000
Cd110      Cd  0.73036497  0.55539095  0.07811504     1.37500
O111        O  0.65351184  0.49756995  0.08446462    -0.57000
O112        O  0.72760668  0.51649309  0.05569452    -0.55800
C113        C  0.76434542  0.63859243  0.09205876     0.78000
O114        O  0.76571943  0.58723563  0.05489291    -0.58100
O115        O  0.66148949  0.55609582  0.07462514    -0.56600
O116        O  0.79844910  0.55843619  0.08550501    -0.56600
O117        O  0.74962313  0.60302182  0.09899913    -0.55800
O118        O  0.28634770  0.41784905  0.08593267    -0.57000
C119        C  0.16562379  0.39628074  0.09581043     0.75700
O120        O  0.18710165  0.33079620  0.05464105    -0.58100
C121        C  0.30456703  0.39771625  0.08085628     0.75600
C122        C  0.17073458  0.27704430  0.09378293     0.78000
Cd123      Cd  0.21012291  0.36074085  0.07919311     1.37500
O124        O  0.20618688  0.40924627  0.09755269    -0.57000
O125        O  0.19796212  0.31277470  0.09984561    -0.55800
C126        C  0.19945893  0.36716125  0.04844371     0.78000
O127        O  0.16253909  0.27944928  0.08064942    -0.58100
O128        O  0.14650525  0.36951846  0.08555214    -0.56600
O129        O  0.27932792  0.36063862  0.07515946    -0.56600
O130        O  0.21510763  0.40068454  0.05654443    -0.55800
C131        C  0.96261973  0.99936240  0.48123426     0.87300
C132        C  0.00045893  0.02830044  0.49171563    -0.52900
C133        C  0.01440999  0.00606541  0.50012499     0.10300
C134        C  0.98856232  0.95599846  0.49750394     0.21200
C135        C  0.97839792  0.97268643  0.47284374    -0.53600
C136        C  0.99297966  0.95060855  0.48110632     0.10400
C137        C  0.92668209  0.96599093  0.49152947    -0.53200
C138        C  0.93967915  0.94251883  0.49974293     0.10900
H139        H  0.01387550  0.06329485  0.49302491     0.15500
H140        H  0.99953198  0.93807820  0.50455548     0.01200
H141        H  0.97789888  0.97143903  0.46111535     0.15800
H142        H  0.89366615  0.96118113  0.49244509     0.15600
O143        O  0.41672357  0.20513043  0.56277292    -0.57000
C144        C  0.40130502  0.31399051  0.57421943     0.75700
O145        O  0.28458222  0.18161210  0.57703204    -0.58100
C146        C  0.39120195  0.16364350  0.56312296     0.75600
C147        C  0.37788896  0.20820115  0.60738617     0.78000
Cd148      Cd  0.36602638  0.22017642  0.57733403     1.37500
O149        O  0.42059331  0.29560086  0.56849562    -0.57000
O150        O  0.41053677  0.22663929  0.59882442    -0.55800
C151        C  0.28145581  0.18219561  0.56343240     0.78000
O152        O  0.34018974  0.19553715  0.60199143    -0.58100
O153        O  0.36617359  0.28903497  0.58115017    -0.56600
O154        O  0.35613145  0.14920246  0.57046649    -0.56600
O155        O  0.31746043  0.20278937  0.55645803    -0.55800
O156        O  0.52466246  0.66788633  0.56746134    -0.57000
C157        C  0.55994301  0.79570437  0.56317449     0.75700
O158        O  0.62761100  0.77225143  0.59793316    -0.58100
C159        C  0.53644661  0.64445204  0.57422281     0.75600
C160        C  0.66676563  0.76225870  0.55799353     0.78000
Cd161      Cd  0.58873467  0.73903729  0.57524988     1.37500
O162        O  0.53733222  0.75433822  0.56170067    -0.57000
O163        O  0.62860915  0.74595222  0.55255155    -0.55800
C164        C  0.59348543  0.75627918  0.60587875     0.78000
O165        O  0.66868028  0.76522466  0.57159333    -0.58100
O166        O  0.59440959  0.81043167  0.57080174    -0.56600
O167        O  0.57225213  0.66475624  0.58122010    -0.56600
O168        O  0.55679500  0.73281799  0.59956403    -0.55800
C169        C  0.46940357  0.97449858  0.49890899    -0.01600
O170        O  0.74742016  0.21080575  0.42893781    -0.57000
C171        C  0.85838772  0.30875805  0.41627955     0.75700
O172        O  0.83727311  0.16493155  0.41374549    -0.58100
C173        C  0.72443294  0.16916348  0.42917496     0.75600
C174        C  0.80037996  0.20056822  0.38260480     0.78000
Cd175      Cd  0.80724277  0.21414913  0.41340577     1.37500
O176        O  0.81896563  0.28949181  0.41162484    -0.57000
O177        O  0.76634245  0.18732033  0.39045707    -0.55800
C178        C  0.84995103  0.17230747  0.42672336     0.78000
O179        O  0.83735462  0.22044902  0.38893964    -0.58100
O180        O  0.87299991  0.28404273  0.41994782    -0.56600
O181        O  0.73898674  0.14937846  0.42168511    -0.56600
O182        O  0.84464741  0.20067215  0.43330887    -0.55800
O183        O  0.19872607  0.73575528  0.42787767    -0.57000
C184        C  0.07730909  0.63749859  0.41484391     0.75700
O185        O  0.10320728  0.77468840  0.41324613    -0.58100
C186        C  0.22301505  0.77726688  0.42732636     0.75600
C187        C  0.15928191  0.74369621  0.38150337     0.78000
Cd188      Cd  0.14000761  0.73096409  0.41196839     1.37500
O189        O  0.11830503  0.65365321  0.41704374    -0.57000
O190        O  0.17409006  0.72496933  0.38940903    -0.55800
C191        C  0.10070003  0.77368782  0.42687966     0.78000
O192        O  0.13630745  0.75712974  0.38774284    -0.58100
O193        O  0.06535913  0.66459155  0.41152147    -0.56600
O194        O  0.21035813  0.79660992  0.41882870    -0.56600
O195        O  0.11383618  0.75099457  0.43338809    -0.55800
C196        C  0.91549196  0.43047084  0.40601357    -0.04600
C197        C  0.94828507  0.44966456  0.41676951     0.09500
C198        C  0.94985181  0.42318195  0.42781584    -0.02000
C199        C  0.91915483  0.37754798  0.42805593    -0.00300
C200        C  0.88691808  0.35771357  0.41704118    -0.03900
C201        C  0.88461079  0.38476592  0.40619685     0.03100
C202        C  0.98163000  0.49791881  0.41645392     0.10000
C203        C  0.98391356  0.44299925  0.43877966     0.35900
C204        C  0.85158027  0.36572984  0.39489290     0.39300
C205        C  0.97142550  0.52815780  0.42263054    -0.04200
C206        C  0.00270783  0.57370825  0.42223099     0.02900
C207        C  0.04490889  0.58931094  0.41586377    -0.03800
C208        C  0.05559341  0.55858450  0.41020920    -0.00100
C209        C  0.02393171  0.51315146  0.41042359    -0.02600
C210        C  0.92906120  0.51207081  0.42976788     0.36600
C211        C  0.09881311  0.57348954  0.40387106     0.40200
C212        C  0.99188331  0.60423149  0.42889916     0.39400
C213        C  0.03490065  0.48181107  0.40453979     0.36300
C214        C  0.91464393  0.45763671  0.39444110     0.37000
C215        C  0.92034890  0.35137460  0.43990146     0.40200
N216        N  0.98317380  0.62847409  0.43425655    -0.37800
N217        N  0.89537292  0.49898917  0.43555853    -0.39400
N218        N  0.13335490  0.58520685  0.39889416    -0.37200
N219        N  0.04360498  0.45669638  0.39992665    -0.39600
N220        N  0.01139809  0.45898651  0.44741550    -0.39300
N221        N  0.92135556  0.33066676  0.44939464    -0.37000
N222        N  0.82512832  0.35072300  0.38590284    -0.38000
N223        N  0.91412335  0.47920667  0.38514845    -0.39700
C224        C  0.35486317  0.90875428  0.47734990    -0.04600
C225        C  0.36514054  0.88630758  0.46705689     0.09500
C226        C  0.40734638  0.89157314  0.46686059    -0.02000
C227        C  0.43953087  0.91867481  0.47711047    -0.00300
C228        C  0.43054652  0.94254631  0.48805004    -0.03900
C229        C  0.38705164  0.93775993  0.48734771     0.03100
C230        C  0.33095619  0.85662597  0.45635414     0.10000
C231        C  0.41696800  0.86705755  0.45630288     0.35900
C232        C  0.37419888  0.96458753  0.49539624     0.39300
C233        C  0.33200882  0.87105622  0.44210536    -0.04200
C234        C  0.29841956  0.84387204  0.43227029     0.02900
C235        C  0.26263746  0.80247741  0.43675761    -0.03800
C236        C  0.26291940  0.78748107  0.45092223    -0.00100
C237        C  0.29708088  0.81435990  0.46059203    -0.02600
C238        C  0.36720881  0.91441539  0.43768998     0.36600
C239        C  0.22704757  0.74535854  0.45597955     0.40200
C240        C  0.30129263  0.85845310  0.41747601     0.39400
C241        C  0.29661173  0.79891675  0.47511715     0.36300
C242        C  0.31047378  0.90241109  0.47737623     0.37000
C243        C  0.48037741  0.91774596  0.47665819     0.40200
N244        N  0.30381188  0.87009073  0.40566573    -0.37800
N245        N  0.39529360  0.94901667  0.43420342    -0.39400
N246        N  0.19859475  0.71184038  0.46012952    -0.37200
N247        N  0.29560166  0.78618627  0.48668249    -0.39600
N248        N  0.42451476  0.84741871  0.44793682    -0.39300
N249        N  0.51107396  0.91390585  0.47551186    -0.37000
N250        N  0.36192231  0.98557606  0.50109229    -0.38000
N251        N  0.27510722  0.89712167  0.47744271    -0.39700
C252        C  0.53264830  0.05374681  0.46603753    -0.04600
C253        C  0.57541089  0.06045985  0.46693896     0.09500
C254        C  0.58489163  0.03822331  0.47750518    -0.02000
C255        C  0.55213578  0.00984083  0.48752552    -0.00300
C256        C  0.50870484  0.00533132  0.48791792    -0.03900
C257        C  0.50008274  0.02783152  0.47643662     0.03100
C258        C  0.61094734  0.09063381  0.45658027     0.10000
C259        C  0.62866983  0.04305746  0.47748225     0.35900
C260        C  0.45923452  0.02868178  0.47560008     0.39300
C261        C  0.64464467  0.13266234  0.46115466    -0.04200
C262        C  0.68065528  0.15941270  0.45197101     0.02900
C263        C  0.68344979  0.14419679  0.43809155    -0.03800
C264        C  0.64849413  0.10279480  0.43331767    -0.00100
C265        C  0.61264799  0.07608429  0.44255888    -0.02600
C266        C  0.64347269  0.14774541  0.47561096     0.36600
C267        C  0.64917672  0.08744197  0.41885217     0.40200
C268        C  0.71590039  0.20148150  0.45726707     0.39400
C269        C  0.57821413  0.03283196  0.43782420     0.36300
C270        C  0.52227971  0.07435071  0.45433117     0.37000
C271        C  0.56427352  0.98300197  0.49585057     0.40200
N272        N  0.74378943  0.23495343  0.46161753    -0.37800
N273        N  0.64359030  0.16034051  0.48713955    -0.39400
N274        N  0.64986222  0.07526033  0.40731914    -0.37200
N275        N  0.55076598  0.99834648  0.43403766    -0.39600
N276        N  0.66342025  0.04684761  0.47736385    -0.39300
N277        N  0.57587879  0.96172891  0.50168946    -0.37000
N278        N  0.42838664  0.03214482  0.47424510    -0.38000
N279        N  0.51375611  0.09025021  0.44493016    -0.39700
C280        C  0.49150768  0.84209311  0.54770798    -0.04600
C281        C  0.52358168  0.87755510  0.53928884     0.09500
C282        C  0.56822523  0.88820016  0.53982345    -0.02000
C283        C  0.58045281  0.86335901  0.54850121    -0.00300
C284        C  0.54769936  0.82545700  0.55583974    -0.03900
C285        C  0.50315810  0.81516953  0.55548445     0.03100
C286        C  0.50964531  0.90190663  0.52933001     0.10000
C287        C  0.60172528  0.92385633  0.53113200     0.35900
C288        C  0.46922999  0.77715683  0.56324894     0.39300
C289        C  0.52371509  0.94644889  0.53155885    -0.04200
C290        C  0.51294663  0.96975313  0.52150600     0.02900
C291        C  0.48215491  0.94743006  0.50984062    -0.03800
C292        C  0.46244522  0.90010489  0.50972294    -0.00100
C293        C  0.48058878  0.87953656  0.51792653    -0.02600
C294        C  0.55032018  0.96872704  0.54416025     0.36600
C295        C  0.41998828  0.86982286  0.50328179     0.40200
C296        C  0.53690776  0.01723406  0.52307777     0.39400
C297        C  0.46774443  0.83410296  0.51492565     0.36300
C298        C  0.44627370  0.83305725  0.54824215     0.37000
C299        C  0.62683775  0.87636287  0.54947466     0.40200
N300        N  0.55794715  0.05477218  0.52506586    -0.37800
N301        N  0.57150846  0.98646229  0.55419420    -0.39400
N302        N  0.38576707  0.84415693  0.49867007    -0.37200
N303        N  0.45741319  0.79795045  0.51253864    -0.39600
N304        N  0.62921815  0.95221692  0.52437262    -0.39300
N305        N  0.66392134  0.88721767  0.55037290    -0.37000
N306        N  0.44206355  0.74669885  0.56936374    -0.38000
N307        N  0.41022527  0.82589869  0.54859613    -0.39700
C308        C  0.48037934  0.52540700  0.58671170    -0.04600
C309        C  0.46871581  0.50274998  0.57343051     0.09500
C310        C  0.47580511  0.52644615  0.56047662    -0.02000
C311        C  0.49590451  0.57271001  0.56075607    -0.00300
C312        C  0.51014026  0.59562192  0.57398191    -0.03900
C313        C  0.50137355  0.57168939  0.58699023     0.03100
C314        C  0.45134623  0.45421499  0.57306991     0.10000
C315        C  0.46397208  0.50330995  0.54680785     0.35900
C316        C  0.51362185  0.59468927  0.60070582     0.39300
C317        C  0.40572523  0.42407634  0.57126542    -0.04200
C318        C  0.38954117  0.37835628  0.57122270     0.02900
C319        C  0.41889499  0.36232287  0.57314660    -0.03800
C320        C  0.46474879  0.39278587  0.57477734    -0.00100
C321        C  0.48080981  0.43846120  0.57472374    -0.02600
C322        C  0.37536496  0.44022588  0.56968737     0.36600
C323        C  0.49539043  0.37736784  0.57719228     0.40200
C324        C  0.34266870  0.34792459  0.56889855     0.39400
C325        C  0.52775120  0.46951346  0.57663400     0.36300
C326        C  0.47138703  0.50102398  0.60009238     0.37000
C327        C  0.50392554  0.59679567  0.54734713     0.40200
N328        N  0.30529079  0.32364479  0.56703463    -0.37800
N329        N  0.35118865  0.45316550  0.56844139    -0.39400
N330        N  0.51993003  0.36519750  0.57915781    -0.37200
N331        N  0.56509531  0.49448223  0.57823253    -0.39600
N332        N  0.45464895  0.48488147  0.53589349    -0.39300
N333        N  0.51028295  0.61605406  0.53666272    -0.37000
N334        N  0.52350630  0.61320151  0.61160742    -0.38000
N335        N  0.46425577  0.48160853  0.61077418    -0.39700
C336        C  0.45024210  0.10619643  0.54843669    -0.04600
C337        C  0.41828430  0.07566740  0.53874964     0.09500
C338        C  0.37658383  0.07238224  0.53776983    -0.02000
C339        C  0.36758764  0.10062016  0.54595995    -0.00300
C340        C  0.40058493  0.13302629  0.55499371    -0.03900
C341        C  0.44180457  0.13538970  0.55630688     0.03100
C342        C  0.43032694  0.04996456  0.52871890     0.10000
C343        C  0.34296608  0.04044797  0.52818537     0.35900
C344        C  0.47526019  0.16726654  0.56595291     0.39300
C345        C  0.41489080  0.00527340  0.53104647    -0.04200
C346        C  0.42542107  0.98114517  0.52120660     0.02900
C347        C  0.45635917  0.00251811  0.50941350    -0.03800
C348        C  0.47642307  0.04992662  0.50893437    -0.00100
C349        C  0.45962381  0.07161800  0.51729805    -0.02600
C350        C  0.38748093  0.98392610  0.54363516     0.36600
C351        C  0.51816783  0.07941704  0.50190750     0.40200
C352        C  0.40125463  0.93381387  0.52320613     0.39400
C353        C  0.47427256  0.11764593  0.51455529     0.36300
C354        C  0.49178315  0.10725106  0.55032075     0.37000
C355        C  0.32477995  0.09735774  0.54461429     0.40200
N356        N  0.37996591  0.89650694  0.52559402    -0.37800
N357        N  0.36590927  0.96708512  0.55372125    -0.39400
N358        N  0.55185607  0.10474640  0.49683453    -0.37200
N359        N  0.48580080  0.15419154  0.51235909    -0.39600
N360        N  0.31540695  0.01506609  0.52070652    -0.39300
N361        N  0.29063320  0.09467278  0.54356222    -0.37000
N362        N  0.50202133  0.19274615  0.57362742    -0.38000
N363        N  0.52472656  0.10771202  0.55183878    -0.39700
C364        C  0.89073747  0.02771004  0.45690382    -0.04600
C365        C  0.91935093  0.07311571  0.45473753     0.09500
C366        C  0.96399185  0.09281888  0.45885246    -0.02000
C367        C  0.97905083  0.06787715  0.46608887    -0.00300
C368        C  0.94831748  0.02434556  0.47094748    -0.03900
C369        C  0.90521909  0.00315048  0.46471385     0.03100
C370        C  0.90265462  0.09967873  0.44758243     0.10000
C371        C  0.99467847  0.13871044  0.45539172     0.35900
C372        C  0.87648342  0.95574763  0.46520260     0.39300
C373        C  0.87513051  0.11085860  0.45530456    -0.04200
C374        C  0.85802117  0.13466883  0.44851786     0.02900
C375        C  0.86891264  0.14808403  0.43395195    -0.03800
C376        C  0.89661332  0.13678221  0.42624673    -0.00100
C377        C  0.91327886  0.11256620  0.43304793    -0.02600
C378        C  0.86405548  0.09736032  0.47024760     0.36600
C379        C  0.90863082  0.15042912  0.41136365     0.40200
C380        C  0.82739982  0.14325968  0.45639495     0.39400
C381        C  0.94123727  0.10060729  0.42507900     0.36300
C382        C  0.84659226  0.00615411  0.45072891     0.37000
C383        C  0.02651098  0.08602981  0.46701911     0.40200
N384        N  0.80284035  0.14989860  0.46266809    -0.37800
N385        N  0.85514290  0.08643924  0.48214297    -0.39400
N386        N  0.91817800  0.16110938  0.39947655    -0.37200
N387        N  0.96379253  0.09125322  0.41880024    -0.39600
N388        N  0.01913801  0.17520147  0.45253011    -0.39300
N389        N  0.06446999  0.10100074  0.46764305    -0.37000
N390        N  0.85282720  0.91799692  0.46534537    -0.38000
N391        N  0.81155676  0.98911959  0.44570634    -0.39700
C392        C  0.02937938  0.81937598  0.44014120    -0.04600
C393        C  0.05699913  0.84904166  0.45085809     0.09500
C394        C  0.09896876  0.85432095  0.45350572    -0.02000
C395        C  0.11307454  0.82958288  0.44562343    -0.00300
C396        C  0.08530432  0.79950753  0.43498771    -0.03900
C397        C  0.04358963  0.79478506  0.43215228     0.03100
C398        C  0.04232846  0.87563873  0.45916042     0.10000
C399        C  0.12784223  0.88569058  0.46424144     0.35900
C400        C  0.01491066  0.76396886  0.42126618     0.39300
C401        C  0.01480667  0.85764534  0.47134655    -0.04200
C402        C  0.99976038  0.88226533  0.47892777     0.02900
C403        C  0.01231140  0.92540792  0.47432748    -0.03800
C404        C  0.04279447  0.94429670  0.46266703    -0.00100
C405        C  0.05687637  0.91919005  0.45498604    -0.02600
C406        C  0.00211250  0.81359560  0.47608456     0.36600
C407        C  0.06159490  0.99027534  0.45883643     0.40200
C408        C  0.97159671  0.86248689  0.49141271     0.39400
C409        C  0.08652430  0.93817348  0.44272130     0.36300
C410        C  0.98644039  0.81442837  0.43733087     0.37000
C411        C  0.15697860  0.83636238  0.44807882     0.40200
N412        N  0.94992359  0.84579261  0.50149152    -0.37800
N413        N  0.99214023  0.77851827  0.47987082    -0.39400
N414        N  0.07685689  0.02684345  0.45562058    -0.37200
N415        N  0.11020433  0.95326257  0.43295712    -0.39600
N416        N  0.15094752  0.91089367  0.47275100    -0.39300
N417        N  0.19199567  0.84176561  0.44996239    -0.37000
N418        N  0.99200521  0.73939317  0.41257991    -0.38000
N419        N  0.95219364  0.81057127  0.43513925    -0.39700
C420        C  0.86844416  0.88344579  0.53225660    -0.04600
C421        C  0.83190810  0.84730362  0.52552169     0.09500
C422        C  0.83541863  0.83786964  0.51095334    -0.02000
C423        C  0.87239515  0.86775704  0.50268184    -0.00300
C424        C  0.90721615  0.90601591  0.50912710    -0.03900
C425        C  0.90672773  0.91175375  0.52416053     0.03100
C426        C  0.78836727  0.82204328  0.53326304     0.10000
C427        C  0.80031402  0.79801873  0.50440082     0.35900
C428        C  0.94526986  0.94648295  0.53137792     0.39300
C429        C  0.75285395  0.82764039  0.52913135    -0.04200
C430        C  0.71214368  0.80545086  0.53657514     0.02900
C431        C  0.70735611  0.77961696  0.54887239    -0.03800
C432        C  0.74275113  0.77349143  0.55287702    -0.00100
C433        C  0.78272517  0.79385841  0.54488869    -0.02600
C434        C  0.75880635  0.85781919  0.51753831     0.36600
C435        C  0.73793254  0.74567225  0.56506083     0.40200
C436        C  0.67576639  0.81064329  0.53175055     0.39400
C437        C  0.81829980  0.78619875  0.54867084     0.36300
C438        C  0.86578784  0.89280127  0.54733851     0.37000
C439        C  0.87486592  0.85906004  0.48752286     0.40200
N440        N  0.64668264  0.81441225  0.52774203    -0.37800
N441        N  0.76364064  0.88201731  0.50834281    -0.39400
N442        N  0.73427594  0.72354673  0.57478742    -0.37200
N443        N  0.84685124  0.78030533  0.55165585    -0.39600
N444        N  0.77241011  0.76611810  0.49918380    -0.39300
N445        N  0.87729270  0.85184603  0.47548765    -0.37000
N446        N  0.97583054  0.97288774  0.53762136    -0.38000
N447        N  0.86354084  0.90014053  0.55937446    -0.39700
C448        C  0.16638775  0.09068133  0.55242251    -0.04600
C449        C  0.15962618  0.10828322  0.53972506     0.09500
C450        C  0.19098630  0.15160113  0.53547213    -0.02000
C451        C  0.23012433  0.17653223  0.54351348    -0.00300
C452        C  0.23805538  0.15823846  0.55591393    -0.03900
C453        C  0.20560542  0.11530443  0.56043351     0.03100
C454        C  0.12098106  0.08000652  0.53025347     0.10000
C455        C  0.18325210  0.17014167  0.52263469     0.35900
C456        C  0.21371589  0.09494979  0.57270309     0.39300
C457        C  0.08286937  0.08359318  0.53064337    -0.04200
C458        C  0.04740255  0.05829018  0.52119062     0.02900
C459        C  0.04987640  0.02913329  0.51119788    -0.03800
C460        C  0.08746459  0.02424436  0.51133579    -0.00100
C461        C  0.12284810  0.04967759  0.52081729    -0.02600
C462        C  0.08019598  0.11327316  0.54085771     0.36600
C463        C  0.09099921  0.99428329  0.50150026     0.40200
C464        C  0.00772285  0.06127471  0.52215818     0.39400
C465        C  0.16170110  0.04514385  0.52077810     0.36300
C466        C  0.13325751  0.04663403  0.55700076     0.37000
C467        C  0.26225965  0.22093356  0.53893213     0.40200
N468        N  0.97593920  0.06336183  0.52297964    -0.37800
N469        N  0.07808406  0.13691999  0.54902491    -0.39400
N470        N  0.09501155  0.97052367  0.49391501    -0.37200
N471        N  0.19266001  0.04152366  0.52083627    -0.39600
N472        N  0.17692162  0.18492903  0.51242654    -0.39300
N473        N  0.28796458  0.25627576  0.53523882    -0.37000
N474        N  0.22024893  0.07852255  0.58241897    -0.38000
N475        N  0.10668100  0.01149846  0.56059159    -0.39700
C476        C  0.42191445  0.44447004  0.09490224    -0.04600
C477        C  0.44556828  0.45094336  0.08191005     0.09500
C478        C  0.42310874  0.44147059  0.06860897    -0.02000
C479        C  0.37701248  0.42427163  0.06829605    -0.00300
C480        C  0.35313908  0.41679014  0.08129146    -0.03900
C481        C  0.37575849  0.42741589  0.09459894     0.03100
C482        C  0.49432751  0.46804858  0.08213374     0.10000
C483        C  0.44774444  0.45028594  0.05523016     0.35900
C484        C  0.35137093  0.41965526  0.10798964     0.39300
C485        C  0.51033905  0.43907258  0.08000276    -0.04200
C486        C  0.55634676  0.45541514  0.07940841     0.02900
C487        C  0.58687767  0.50102443  0.08113861    -0.03800
C488        C  0.57048849  0.52985744  0.08355623    -0.00100
C489        C  0.52446029  0.51341333  0.08387800    -0.02600
C490        C  0.47924918  0.39238360  0.07812667     0.36600
C491        C  0.60070899  0.57646650  0.08601295     0.40200
C492        C  0.57191778  0.42528483  0.07634796     0.39400
C493        C  0.50789501  0.54328818  0.08570286     0.36300
C494        C  0.44518500  0.45552105  0.10855732     0.37000
C495        C  0.35433672  0.41572971  0.05456479     0.40200
N496        N  0.58427464  0.40122385  0.07386068    -0.37800
N497        N  0.45442144  0.35518282  0.07657109    -0.39400
N498        N  0.62466829  0.61365684  0.08797966    -0.37200
N499        N  0.49450421  0.56697244  0.08711199    -0.39600
N500        N  0.46756072  0.45751367  0.04458404    -0.39300
N501        N  0.33618137  0.40911158  0.04363647    -0.37000
N502        N  0.33189086  0.41339772  0.11866980    -0.38000
N503        N  0.46386052  0.46466646  0.11943607    -0.39700
C504        C  0.08273714  0.47807397  0.14298112    -0.04600
C505        C  0.06230808  0.43859252  0.13512950     0.09500
C506        C  0.01725821  0.40835956  0.13750612    -0.02000
C507        C  0.99130349  0.41978453  0.14615706    -0.00300
C508        C  0.01104470  0.46049238  0.15426422    -0.03900
C509        C  0.05883414  0.48677140  0.15348293     0.03100
C510        C  0.08900718  0.42807396  0.12487702     0.10000
C511        C  0.99726034  0.36535295  0.13069207     0.35900
C512        C  0.08616210  0.51967425  0.16402648     0.39300
C513        C  0.12199494  0.42032938  0.13028645    -0.04200
C514        C  0.14859865  0.41236630  0.12077321     0.02900
C515        C  0.14114197  0.40996191  0.10569296    -0.03800
C516        C  0.10788398  0.41740371  0.10029382    -0.00100
C517        C  0.08190753  0.42628898  0.10981544    -0.02600
C518        C  0.12744008  0.41897808  0.14575749     0.36600
C519        C  0.10111172  0.41724758  0.08485953     0.40200
C520        C  0.18276823  0.40539068  0.12668530     0.39400
C521        C  0.04712698  0.43242479  0.10400377     0.36300
C522        C  0.12915425  0.51017575  0.14025465     0.37000
C523        C  0.94380997  0.38988322  0.14545976     0.40200
N524        N  0.21005339  0.40000381  0.13147563    -0.37800
N525        N  0.13151609  0.41782920  0.15809956    -0.39400
N526        N  0.09573246  0.41727554  0.07255598    -0.37200
N527        N  0.01908643  0.43634485  0.09907154    -0.39600
N528        N  0.98146090  0.33109602  0.12528872    -0.39300
N529        N  0.90646877  0.36441743  0.14416639    -0.37000
N530        N  0.11021353  0.54534286  0.17225967    -0.38000
N531        N  0.16603927  0.53579232  0.13807017    -0.39700
C532        C  0.82418432  0.46789098  0.11795136    -0.04600
C533        C  0.86345703  0.50372671  0.12354991     0.09500
C534        C  0.87622292  0.54694596  0.11935686    -0.02000
C535        C  0.84889658  0.55461962  0.11022241    -0.00300
C536        C  0.80959701  0.51882333  0.10444547    -0.03900
C537        C  0.79763357  0.47533814  0.10826983     0.03100
C538        C  0.89277882  0.49639597  0.13345469     0.10000
C539        C  0.91813681  0.58358865  0.12428539     0.35900
C540        C  0.75904491  0.43812800  0.10185097     0.39300
C541        C  0.92204181  0.48446717  0.12773407    -0.04200
C542        C  0.95368434  0.48269941  0.13662244     0.02900
C543        C  0.95156020  0.48474047  0.15220219    -0.03800
C544        C  0.92373508  0.50090528  0.15749876    -0.00100
C545        C  0.89522323  0.50675619  0.14815860    -0.02600
C546        C  0.92190174  0.47741935  0.11225598     0.36600
C547        C  0.92123837  0.50972560  0.17262701     0.40200
C548        C  0.99214507  0.48828512  0.12887204     0.39400
C549        C  0.86686744  0.52223358  0.15378000     0.36300
C550        C  0.81147355  0.42330286  0.12198085     0.37000
C551        C  0.86059953  0.59969458  0.10733703     0.40200
N552        N  0.02283939  0.49510468  0.12215481    -0.37800
N553        N  0.92194649  0.47191184  0.09995511    -0.39400
N554        N  0.91700906  0.51790274  0.18439562    -0.37200
N555        N  0.84441034  0.53474019  0.15821315    -0.39600
N556        N  0.95172080  0.61258792  0.12818087    -0.39300
N557        N  0.86986415  0.63565515  0.10514477    -0.37000
N558        N  0.72847410  0.40831095  0.09668156    -0.38000
N559        N  0.80120271  0.38761469  0.12509421    -0.39700
C560        C  0.81331412  0.16201115  0.31296732    -0.04600
C561        C  0.78489542  0.17211545  0.32062323     0.09500
C562        C  0.75158250  0.17515197  0.31319497    -0.02000
C563        C  0.74653388  0.16801464  0.29815874    -0.00300
C564        C  0.77394304  0.15620447  0.29046516    -0.03900
C565        C  0.80782259  0.15388488  0.29798888     0.03100
C566        C  0.78976292  0.17925323  0.33659297     0.10000
C567        C  0.72180613  0.18469467  0.32115490     0.35900
C568        C  0.83805257  0.14435450  0.29031647     0.39300
C569        C  0.81981175  0.22125609  0.34221404    -0.04200
C570        C  0.82314807  0.22834639  0.35725063     0.02900
C571        C  0.79717040  0.19313842  0.36678253    -0.03800
C572        C  0.76823644  0.15074035  0.36114017    -0.00100
C573        C  0.76397147  0.14403712  0.34609244    -0.02600
C574        C  0.84712992  0.25724133  0.33248504     0.36600
C575        C  0.74437070  0.11356138  0.37080982     0.40200
C576        C  0.85224302  0.27225148  0.36287081     0.39400
C577        C  0.73287690  0.10090093  0.34033950     0.36300
C578        C  0.84809384  0.15967088  0.32058242     0.37000
C579        C  0.71229750  0.17191736  0.29078756     0.40200
N580        N  0.87532126  0.30726772  0.36737324    -0.37800
N581        N  0.86911387  0.28593183  0.32473613    -0.39400
N582        N  0.72576494  0.08387723  0.37853781    -0.37200
N583        N  0.70786400  0.06656080  0.33573914    -0.39600
N584        N  0.69788332  0.19193712  0.32755609    -0.39300
N585        N  0.68515767  0.17543379  0.28495523    -0.37000
N586        N  0.86216923  0.13674962  0.28420223    -0.38000
N587        N  0.87587856  0.15787762  0.32665700    -0.39700
C588        C  0.85368810  0.27542748  0.19551302    -0.04600
C589        C  0.87475480  0.31765144  0.20184263     0.09500
C590        C  0.87222035  0.32170176  0.21692489    -0.02000
C591        C  0.84835005  0.28376808  0.22558087    -0.00300
C592        C  0.82616844  0.24157861  0.21918246    -0.03900
C593        C  0.82986374  0.23753519  0.20414603     0.03100
C594        C  0.90069378  0.35749508  0.19248007     0.10000
C595        C  0.89387636  0.36477607  0.22361454     0.35900
C596        C  0.81177961  0.19433069  0.19766506     0.39300
C597        C  0.87869067  0.37292403  0.18392505    -0.04200
C598        C  0.90199132  0.40630875  0.17348588     0.02900
C599        C  0.95001879  0.43081166  0.17295800    -0.03800
C600        C  0.97130511  0.41363170  0.18202545    -0.00100
C601        C  0.94660138  0.37672146  0.19111048    -0.02600
C602        C  0.83095319  0.35280789  0.18559165     0.36600
C603        C  0.01903815  0.43460470  0.18317816     0.40200
C604        C  0.87386228  0.40918907  0.16271496     0.39400
C605        C  0.96861344  0.35838226  0.19934108     0.36300
C606        C  0.85709273  0.27111774  0.18006800     0.37000
C607        C  0.84656912  0.28822863  0.24109061     0.40200
N608        N  0.84881726  0.40829768  0.15443397    -0.37800
N609        N  0.79302117  0.33685856  0.18693713    -0.39400
N610        N  0.05656146  0.44899969  0.18497505    -0.37200
N611        N  0.98588717  0.34351012  0.20587621    -0.39600
N612        N  0.91078743  0.39864609  0.22930534    -0.39300
N613        N  0.84542046  0.29161408  0.25347541    -0.37000
N614        N  0.79798041  0.15993138  0.19251407    -0.38000
N615        N  0.85987346  0.26805697  0.16773609    -0.39700
C616        C  0.14997893  0.75986654  0.31094956    -0.04600
C617        C  0.18436781  0.76223916  0.31945353     0.09500
C618        C  0.22495930  0.77255722  0.31298704    -0.02000
C619        C  0.23147462  0.78126032  0.29807701    -0.00300
C620        C  0.19776976  0.78087865  0.28965603    -0.03900
C621        C  0.15692644  0.77003420  0.29614439     0.03100
C622        C  0.17906575  0.75753422  0.33543569     0.10000
C623        C  0.26063078  0.77603762  0.32182908     0.35900
C624        C  0.12208219  0.76962601  0.28763769     0.39300
C625        C  0.16941380  0.71796591  0.34223742    -0.04200
C626        C  0.16417941  0.71380576  0.35734303     0.02900
C627        C  0.16764567  0.74901569  0.36570253    -0.03800
C628        C  0.17764581  0.78878890  0.35879754    -0.00100
C629        C  0.18369728  0.79307071  0.34373979    -0.02600
C630        C  0.16399334  0.68126513  0.33361358     0.36600
C631        C  0.18282244  0.82586883  0.36714797     0.40200
C632        C  0.15356928  0.67258680  0.36414545     0.39400
C633        C  0.19488493  0.83417184  0.33669434     0.36300
C634        C  0.10768578  0.74764390  0.31754596     0.37000
C635        C  0.27391389  0.79336147  0.29161868     0.40200
N636        N  0.14519823  0.63969011  0.36953883    -0.37800
N637        N  0.15958637  0.65199338  0.32671362    -0.39400
N638        N  0.18695729  0.85559164  0.37372126    -0.37200
N639        N  0.20380281  0.86676098  0.33095539    -0.39600
N640        N  0.28906470  0.77897470  0.32893229    -0.39300
N641        N  0.30780425  0.80314852  0.28647440    -0.37000
N642        N  0.09442921  0.76967717  0.28088812    -0.38000
N643        N  0.07397150  0.73780352  0.32283802    -0.39700
C644        C  0.53619637  0.97645739  0.25220622    -0.04600
C645        C  0.51175318  0.98517914  0.24209233     0.09500
C646        C  0.53413190  0.01958424  0.23204289    -0.02000
C647        C  0.58080558  0.04581116  0.23227117    -0.00300
C648        C  0.60553710  0.03801112  0.24267327    -0.03900
C649        C  0.58280708  0.00291738  0.25261331     0.03100
C650        C  0.46220134  0.95809954  0.24216005     0.10000
C651        C  0.50895233  0.02767958  0.22138301     0.35900
C652        C  0.60693190  0.99476923  0.26366504     0.39300
C653        C  0.43765876  0.96757492  0.25205394    -0.04200
C654        C  0.39102446  0.94105420  0.25257682     0.02900
C655        C  0.36835658  0.90450118  0.24314812    -0.03800
C656        C  0.39344458  0.89527756  0.23321253    -0.00100
C657        C  0.44001981  0.92219486  0.23268247    -0.02600
C658        C  0.46070533  0.00464722  0.26179594     0.36600
C659        C  0.37173359  0.85843352  0.22332816     0.40200
C660        C  0.36694814  0.95080611  0.26326040     0.39400
C661        C  0.46538636  0.91302528  0.22234771     0.36300
C662        C  0.51311011  0.93993104  0.26217192     0.37000
C663        C  0.60324968  0.07990314  0.22146539     0.40200
N664        N  0.34801494  0.95880505  0.27181919    -0.37800
N665        N  0.47925109  0.03418961  0.26955684    -0.39400
N666        N  0.35461792  0.82890714  0.21548773    -0.37200
N667        N  0.48568931  0.90594384  0.21406503    -0.39600
N668        N  0.48877637  0.03391011  0.21284990    -0.39300
N669        N  0.62111914  0.10702987  0.21282100    -0.37000
N670        N  0.62595359  0.98815465  0.27253150    -0.38000
N671        N  0.49447948  0.91064230  0.27004393    -0.39700
C672        C  0.06189915  0.59759446  0.17469485    -0.04600
C673        C  0.06409058  0.59458098  0.18969999     0.09500
C674        C  0.03591996  0.55448768  0.19654691    -0.02000
C675        C  0.00555399  0.51721693  0.18850381    -0.00300
C676        C  0.00724746  0.51690459  0.17287487    -0.03900
C677        C  0.03385126  0.55986428  0.16633273     0.03100
C678        C  0.09375772  0.63454368  0.19853646     0.10000
C679        C  0.03690520  0.55218243  0.21221418     0.35900
C680        C  0.03511999  0.56727082  0.15094128     0.39300
C681        C  0.08336887  0.66795838  0.20035621    -0.04200
C682        C  0.11051334  0.70500123  0.20894779     0.02900
C683        C  0.14688461  0.70780345  0.21647376    -0.03800
C684        C  0.15701029  0.67414329  0.21475610    -0.00100
C685        C  0.13107289  0.63811998  0.20559642    -0.02600
C686        C  0.04422462  0.66385575  0.19355872     0.36600
C687        C  0.19277161  0.67532871  0.22293023     0.40200
C688        C  0.10187048  0.74099790  0.20953201     0.39400
C689        C  0.14228619  0.60419897  0.20367978     0.36300
C690        C  0.09040300  0.63985025  0.16775249     0.37000
C691        C  0.96924897  0.48373074  0.19698689     0.40200
N692        N  0.09507723  0.76977847  0.20977612    -0.37800
N693        N  0.01303740  0.66053946  0.18811425    -0.39400
N694        N  0.22104158  0.67595540  0.22951394    -0.37200
N695        N  0.15131225  0.57715136  0.20228615    -0.39600
N696        N  0.03797970  0.55030620  0.22465209    -0.39300
N697        N  0.94049251  0.45892166  0.20427768    -0.37000
N698        N  0.03846287  0.57754667  0.13894830    -0.38000
N699        N  0.11300240  0.67354986  0.16227856    -0.39700
C700        C  0.12648184  0.15708557  0.10382197    -0.04600
C701        C  0.10813472  0.15504843  0.11755014     0.09500
C702        C  0.11037626  0.19286907  0.12346299    -0.02000
C703        C  0.13069375  0.23262827  0.11565468    -0.00300
C704        C  0.14906956  0.23485964  0.10185484    -0.03900
C705        C  0.14673220  0.19683074  0.09594242     0.03100
C706        C  0.08293809  0.11214240  0.12531268     0.10000
C707        C  0.09077441  0.19047590  0.13748445     0.35900
C708        C  0.16587447  0.19869311  0.08189080     0.39300
C709        C  0.10363515  0.10003827  0.13582160    -0.04200
C710        C  0.07879404  0.06037123  0.14362936     0.02900
C711        C  0.03297335  0.03229483  0.14082992    -0.03800
C712        C  0.01273912  0.04474608  0.13009014    -0.00100
C713        C  0.03755542  0.08452185  0.12248966    -0.02600
C714        C  0.15055349  0.12876632  0.13860577     0.36600
C715        C  0.96568421  0.01837872  0.12727947     0.40200
C716        C  0.10111187  0.04876093  0.15431476     0.39400
C717        C  0.01606211  0.09786303  0.11197905     0.36300
C718        C  0.12426648  0.11810008  0.09782121     0.37000
C719        C  0.13051463  0.27054920  0.12157736     0.40200
N720        N  0.12031490  0.04102641  0.16278942    -0.37800
N721        N  0.18798976  0.15182952  0.14076540    -0.39400
N722        N  0.92828921  0.99850266  0.12467499    -0.37200
N723        N  0.99892160  0.10862155  0.10365716    -0.39600
N724        N  0.07510865  0.18851892  0.14865944    -0.39300
N725        N  0.12992387  0.30050367  0.12635090    -0.37000
N726        N  0.18111064  0.20014892  0.07067454    -0.38000
N727        N  0.12252770  0.08696142  0.09307054    -0.39700
C728        C  0.79382158  0.72292705  0.12171417    -0.04600
C729        C  0.83445832  0.75780826  0.11655477     0.09500
C730        C  0.84909115  0.75594623  0.10254140    -0.02000
C731        C  0.82492380  0.71781958  0.09410498    -0.00300
C732        C  0.78556511  0.68152268  0.09963505    -0.03900
C733        C  0.76914685  0.68505299  0.11321386     0.03100
C734        C  0.86295495  0.79600827  0.12607094     0.10000
C735        C  0.88984520  0.79294958  0.09701110     0.35900
C736        C  0.72671138  0.64979795  0.11843313     0.39300
C737        C  0.90014232  0.79885177  0.13274690    -0.04200
C738        C  0.92928088  0.83633253  0.14092425     0.02900
C739        C  0.91916542  0.87016024  0.14378706    -0.03800
C740        C  0.88139189  0.86668112  0.13652290    -0.00100
C741        C  0.85416803  0.83020842  0.12769649    -0.02600
C742        C  0.90915823  0.76330762  0.13072065     0.36600
C743        C  0.86922959  0.90008557  0.13782762     0.40200
C744        C  0.97078829  0.83997677  0.14500500     0.39400
C745        C  0.81730076  0.82814064  0.11988619     0.36300
C746        C  0.77801748  0.72557503  0.13593293     0.37000
C747        C  0.84220337  0.71530568  0.08012653     0.40200
N748        N  0.00311725  0.84069784  0.14803078    -0.37800
N749        N  0.91627091  0.73502109  0.12904620    -0.39400
N750        N  0.85742706  0.92511245  0.13902982    -0.37200
N751        N  0.78807591  0.82645324  0.11357974    -0.39600
N752        N  0.92238896  0.82251132  0.09265668    -0.39300
N753        N  0.85609171  0.71339296  0.06898889    -0.37000
N754        N  0.69281120  0.62162679  0.12252207    -0.38000
N755        N  0.76530630  0.72762480  0.14726587    -0.39700
C756        C  0.91222442  0.03945569  0.18601429    -0.04600
C757        C  0.88712320  0.01279815  0.19770931     0.09500
C758        C  0.88651437  0.97338696  0.20065440    -0.02000
C759        C  0.90961970  0.95984326  0.19160940    -0.00300
C760        C  0.93352226  0.98570550  0.17953918    -0.03900
C761        C  0.93572142  0.02618089  0.17701388     0.03100
C762        C  0.86069220  0.02614556  0.20675522     0.10000
C763        C  0.86139184  0.94637511  0.21284139     0.35900
C764        C  0.96091467  0.05389843  0.16499186     0.39300
C765        C  0.81958968  0.01871294  0.20174658    -0.04200
C766        C  0.79594530  0.03408371  0.20972139     0.02900
C767        C  0.81330164  0.05708225  0.22286950    -0.03800
C768        C  0.85402976  0.06309466  0.22806772    -0.00100
C769        C  0.87761551  0.04783389  0.21997735    -0.02600
C770        C  0.80204206  0.99576946  0.18820000     0.36600
C771        C  0.87310258  0.08674456  0.24138667     0.40200
C772        C  0.75354426  0.02569242  0.20432985     0.39400
C773        C  0.92016177  0.05563948  0.22499308     0.36300
C774        C  0.91286716  0.08012419  0.18307444     0.37000
C775        C  0.90942332  0.91954083  0.19485725     0.40200
N776        N  0.71982215  0.01904526  0.19995904    -0.37800
N777        N  0.78825316  0.97759922  0.17737302    -0.39400
N778        N  0.88849729  0.10553696  0.25201018    -0.37200
N779        N  0.95413285  0.06181301  0.22891948    -0.39600
N780        N  0.84142643  0.92478552  0.22257091    -0.39300
N781        N  0.90954615  0.88752087  0.19736295    -0.37000
N782        N  0.98088047  0.07735085  0.15562373    -0.38000
N783        N  0.91299924  0.11235883  0.18073614    -0.39700
C784        C  0.10325358  0.93542158  0.18393835    -0.04600
C785        C  0.10400079  0.94558323  0.19867683     0.09500
C786        C  0.07993726  0.96524998  0.20352070    -0.02000
C787        C  0.05151652  0.97033579  0.19397299    -0.00300
C788        C  0.04764691  0.95617618  0.17950263    -0.03900
C789        C  0.07641364  0.94218480  0.17433239     0.03100
C790        C  0.12660128  0.93137140  0.20915933     0.10000
C791        C  0.08330095  0.97866874  0.21847327     0.35900
C792        C  0.07940609  0.93610094  0.15897884     0.39300
C793        C  0.17324211  0.95229040  0.20944061    -0.04200
C794        C  0.19390345  0.93404394  0.21755956     0.02900
C795        C  0.16802422  0.89512027  0.22563886    -0.03800
C796        C  0.12140671  0.87575300  0.22602973    -0.00100
C797        C  0.10082992  0.89359995  0.21770588    -0.02600
C798        C  0.19986156  0.99169411  0.20093462     0.36600
C799        C  0.09408098  0.83557819  0.23413983     0.40200
C800        C  0.24183702  0.95521451  0.21750026     0.39400
C801        C  0.05282540  0.87154436  0.21725997     0.36300
C802        C  0.12833882  0.91581628  0.17875145     0.37000
C803        C  0.02614609  0.98941275  0.19923744     0.40200
N804        N  0.28004924  0.97191273  0.21744091    -0.37800
N805        N  0.22116584  0.02295938  0.19407771    -0.39400
N806        N  0.07214225  0.80342610  0.24052550    -0.37200
N807        N  0.01457842  0.85404983  0.21685040    -0.39600
N808        N  0.08600707  0.98927476  0.23041392    -0.39300
N809        N  0.00703778  0.00553042  0.20377048    -0.37000
N810        N  0.08234472  0.93220606  0.14670425    -0.38000
N811        N  0.14825844  0.90008180  0.17462730    -0.39700
C812        C  0.79815857  0.51932653  0.98094487    -0.04600
C813        C  0.79189143  0.55147954  0.98771367     0.09500
C814        C  0.79063875  0.58415028  0.97935723    -0.02000
C815        C  0.79365068  0.58354496  0.96421565    -0.00300
C816        C  0.80009541  0.55144488  0.95736830    -0.03900
C817        C  0.80249511  0.51938482  0.96582034     0.03100
C818        C  0.78276830  0.54894695  0.00352620     0.10000
C819        C  0.78623643  0.61843491  0.98638903     0.35900
C820        C  0.81047089  0.48703271  0.95903548     0.39300
C821        C  0.81670220  0.57573411  0.01327320    -0.04200
C822        C  0.80663857  0.57657043  0.02796815     0.02900
C823        C  0.76272468  0.54939182  0.03305406    -0.03800
C824        C  0.72923053  0.52109278  0.02333589    -0.00100
C825        C  0.73926572  0.52101146  0.00862475    -0.02600
C826        C  0.86205468  0.60166717  0.00819015     0.36600
C827        C  0.68393719  0.49339237  0.02829570     0.40200
C828        C  0.84170548  0.60482903  0.03787193     0.39400
C829        C  0.70475962  0.49227462  0.99864017     0.36300
C830        C  0.80045633  0.48641408  0.98961580     0.37000
C831        C  0.78760548  0.61448580  0.95567784     0.40200
N832        N  0.86960503  0.62743877  0.04577848    -0.37800
N833        N  0.89831970  0.62193322  0.00417223    -0.39400
N834        N  0.64780372  0.47130168  0.03224453    -0.37200
N835        N  0.67746079  0.46922349  0.99063827    -0.39600
N836        N  0.78326644  0.64605857  0.99202446    -0.39300
N837        N  0.78221777  0.63881256  0.94888012    -0.37000
N838        N  0.81682361  0.46124313  0.95360620    -0.38000
N839        N  0.80233899  0.46023649  0.99656641    -0.39700
C840        C  0.63343786  0.48548238  0.87683783    -0.04600
C841        C  0.64481220  0.50702902  0.86334181     0.09500
C842        C  0.68977130  0.53230298  0.85925641    -0.02000
C843        C  0.72320402  0.53651516  0.86867357    -0.00300
C844        C  0.71195701  0.51557415  0.88233050    -0.03900
C845        C  0.66683895  0.48975938  0.88630957     0.03100
C846        C  0.60909032  0.50187575  0.85325631     0.10000
C847        C  0.70178387  0.55446897  0.84540052     0.35900
C848        C  0.65459992  0.46643561  0.89995425     0.39300
C849        C  0.58699183  0.52491462  0.85562479    -0.04200
C850        C  0.55322970  0.52019323  0.84612619     0.02900
C851        C  0.53908658  0.49041159  0.83391490    -0.03800
C852        C  0.55928842  0.46335179  0.83312700    -0.00100
C853        C  0.59573036  0.47179635  0.84191593    -0.02600
C854        C  0.60052125  0.55514443  0.86775867     0.36600
C855        C  0.54111232  0.42243168  0.82526961     0.40200
C856        C  0.53635189  0.54929712  0.84897571     0.39400
C857        C  0.61861148  0.44747944  0.83978427     0.36300
C858        C  0.58715979  0.45882899  0.88092735     0.37000
C859        C  0.76933800  0.56395293  0.86446201     0.40200
N860        N  0.52568583  0.57410896  0.85232663    -0.37800
N861        N  0.61131246  0.57907832  0.87744286    -0.39400
N862        N  0.52859164  0.38874642  0.81976164    -0.37200
N863        N  0.63683251  0.42824578  0.83805685    -0.39600
N864        N  0.71194886  0.57225410  0.83436905    -0.39300
N865        N  0.80611977  0.58575079  0.86111236    -0.37000
N866        N  0.64469925  0.44757541  0.91079983    -0.38000
N867        N  0.55016333  0.43780167  0.88411575    -0.39700
C868        C  0.17807372  0.39929253  0.01128158    -0.04600
C869        C  0.19152660  0.37641469  0.00208249     0.09500
C870        C  0.20771888  0.35068327  0.00807169    -0.02000
C871        C  0.20972165  0.34714845  0.02318302    -0.00300
C872        C  0.19648186  0.37026765  0.03247577    -0.03900
C873        C  0.18091125  0.39660296  0.02640538     0.03100
C874        C  0.18697853  0.37790630  0.98604950     0.10000
C875        C  0.22263678  0.32808208  0.99860557     0.35900
C876        C  0.16619802  0.41971666  0.03569414     0.39300
C877        C  0.21995718  0.41309754  0.97785810    -0.04200
C878        C  0.21555694  0.41419429  0.96274170     0.02900
C879        C  0.17861561  0.37931321  0.95563137    -0.03800
C880        C  0.14533045  0.34432354  0.96395509    -0.00100
C881        C  0.14948658  0.34382320  0.97907207    -0.02600
C882        C  0.25872479  0.44796391  0.98501164     0.36600
C883        C  0.10561664  0.30966663  0.95710983     0.40200
C884        C  0.24946899  0.45106859  0.95455321     0.39400
C885        C  0.11482202  0.30841822  0.98754716     0.36300
C886        C  0.16057459  0.42503873  0.00513624     0.37000
C887        C  0.22648130  0.32045538  0.02909964     0.40200
N888        N  0.27631789  0.48067122  0.94803092    -0.37800
N889        N  0.28973387  0.47574177  0.99070535    -0.39400
N890        N  0.07388394  0.28210701  0.95166198    -0.37200
N891        N  0.08718270  0.28030138  0.99434316    -0.39600
N892        N  0.23465031  0.31025184  0.99101216    -0.39300
N893        N  0.23972000  0.29902414  0.03379112    -0.37000
N894        N  0.15446363  0.43818825  0.04309746    -0.38000
N895        N  0.14653012  0.44549227  0.00021635    -0.39700
C896        C  0.00077256  0.42221931  0.92063407    -0.04600
C897        C  0.00592839  0.45682650  0.91168812     0.09500
C898        C  0.04283589  0.47773666  0.90232748    -0.02000
C899        C  0.07335155  0.46296567  0.90145372    -0.00300
C900        C  0.06730612  0.42712177  0.91000627    -0.03900
C901        C  0.03109934  0.40726755  0.91976514     0.03100
C902        C  0.97219538  0.47097473  0.91196876     0.10000
C903        C  0.04976695  0.51505208  0.89374543     0.35900
C904        C  0.02572875  0.37240190  0.92935817     0.39300
C905        C  0.97066063  0.49595037  0.92360216    -0.04200
C906        C  0.93940912  0.50983971  0.92368775     0.02900
C907        C  0.91029874  0.50013800  0.91189665    -0.03800
C908        C  0.91114794  0.47417242  0.90042109    -0.00100
C909        C  0.94168773  0.45935035  0.90053772    -0.02600
C910        C  0.00144484  0.50750195  0.93548327     0.36600
C911        C  0.88171424  0.46389392  0.88821670     0.40200
C912        C  0.93611583  0.53265815  0.93621722     0.39400
C913        C  0.94183131  0.43207774  0.88885986     0.36300
C914        C  0.96470383  0.40258599  0.93099586     0.37000
C915        C  0.11033042  0.48416422  0.89146960     0.40200
N916        N  0.93321485  0.55047823  0.94626812    -0.37800
N917        N  0.02588290  0.51647756  0.94498399    -0.39400
N918        N  0.85826142  0.45572819  0.87847145    -0.37200
N919        N  0.94199469  0.41028766  0.87956493    -0.39600
N920        N  0.05541362  0.54493546  0.88694104    -0.39300
N921        N  0.13988486  0.50118828  0.88352947    -0.37000
N922        N  0.02151231  0.34464767  0.93701156    -0.38000
N923        N  0.93641372  0.38743301  0.93943785    -0.39700
C924        C  0.40676130  0.49529343  0.84504363    -0.04600
C925        C  0.38941491  0.45804101  0.85386891     0.09500
C926        C  0.40882901  0.43192989  0.85363173    -0.02000
C927        C  0.44424568  0.44149334  0.84405591    -0.00300
C928        C  0.46138108  0.47796200  0.83398598    -0.03900
C929        C  0.44282487  0.50630197  0.83559262     0.03100
C930        C  0.35086752  0.44685793  0.86369760     0.10000
C931        C  0.39101903  0.39384078  0.86312033     0.35900
C932        C  0.46222409  0.54993821  0.82940616     0.39300
C933        C  0.30749838  0.42663087  0.85808784    -0.04200
C934        C  0.27123080  0.41617834  0.86724887     0.02900
C935        C  0.27800049  0.42633822  0.88213743    -0.03800
C936        C  0.32155896  0.44720004  0.88770155    -0.00100
C937        C  0.35779606  0.45739038  0.87851772    -0.02600
C938        C  0.30007859  0.41646113  0.84283553     0.36600
C939        C  0.32930608  0.45943492  0.90280155     0.40200
C940        C  0.22670057  0.39318729  0.86138105     0.39400
C941        C  0.40241852  0.47920088  0.88425866     0.36300
C942        C  0.38829244  0.52388222  0.84630343     0.37000
C943        C  0.45956475  0.41037943  0.84429362     0.40200
N944        N  0.19121385  0.37472972  0.85669314    -0.37800
N945        N  0.29371041  0.40847536  0.83067139    -0.39400
N946        N  0.33536769  0.46928851  0.91484605    -0.37200
N947        N  0.43807396  0.49654409  0.88879864    -0.39600
N948        N  0.37679619  0.36357548  0.87068569    -0.39300
N949        N  0.46857855  0.38324476  0.84535451    -0.37000
N950        N  0.47649605  0.58549574  0.82519534    -0.38000
N951        N  0.37377197  0.54670645  0.84737634    -0.39700
C952        C  0.97366054  0.84778471  0.87290131    -0.04600
C953        C  0.94378670  0.80689586  0.86663948     0.09500
C954        C  0.93469549  0.80454209  0.85178599    -0.02000
C955        C  0.95232183  0.84338375  0.84351502    -0.00300
C956        C  0.97731959  0.88531330  0.85025053    -0.03900
C957        C  0.99291807  0.88629975  0.86445731     0.03100
C958        C  0.92486603  0.76572965  0.87539078     0.10000
C959        C  0.90738513  0.76194904  0.84501075     0.35900
C960        C  0.03297594  0.92450425  0.86971342     0.39300
C961        C  0.88014892  0.74415003  0.87977945    -0.04200
C962        C  0.86177915  0.70427990  0.88751726     0.02900
C963        C  0.88834223  0.68605330  0.89107545    -0.03800
C964        C  0.93337987  0.70821616  0.88682759    -0.00100
C965        C  0.95144093  0.74774237  0.87893031    -0.02600
C966        C  0.85293973  0.76279003  0.87609948     0.36600
C967        C  0.96151733  0.69086031  0.89075493     0.40200
C968        C  0.81494886  0.68103265  0.89111071     0.39400
C969        C  0.99732513  0.76975826  0.87423843     0.36300
C970        C  0.98484066  0.85016824  0.88805499     0.37000
C971        C  0.94730157  0.83957757  0.82795859     0.40200
N972        N  0.77755225  0.66248950  0.89389700    -0.37800
N973        N  0.83137216  0.77773406  0.87309031    -0.39400
N974        N  0.98403432  0.67709211  0.89387704    -0.37200
N975        N  0.03391649  0.78756751  0.87049400    -0.39600
N976        N  0.88550264  0.72793917  0.83966087    -0.39300
N977        N  0.94341197  0.83635936  0.81555478    -0.37000
N978        N  0.06531610  0.95465459  0.87387109    -0.38000
N979        N  0.99353773  0.85198774  0.90015742    -0.39700
C980        C  0.06495679  0.12944744  0.85211267    -0.04600
C981        C  0.04167683  0.12739149  0.86471052     0.09500
C982        C  0.00643520  0.08687402  0.86950051    -0.02000
C983        C  0.99518334  0.04793020  0.86194600    -0.00300
C984        C  0.02100513  0.04883265  0.84989009    -0.03900
C985        C  0.05507756  0.09058220  0.84473565     0.03100
C986        C  0.05665813  0.16787325  0.87347901     0.10000
C987        C  0.98244663  0.08531595  0.88248422     0.35900
C988        C  0.08103856  0.09504849  0.83200270     0.39300
C989        C  0.03971237  0.19573961  0.87084307    -0.04200
C990        C  0.05713128  0.23601293  0.87828379     0.02900
C991        C  0.09106461  0.24809484  0.88863113    -0.03800
C992        C  0.10697294  0.21920631  0.89150694    -0.00100
C993        C  0.08993431  0.17939560  0.88388088    -0.02600
C994        C  0.00485822  0.18315385  0.86028334     0.36600
C995        C  0.14283799  0.23139374  0.90164054     0.40200
C996        C  0.04006779  0.26487077  0.87519787     0.39400
C997        C  0.10766920  0.15074268  0.88633385     0.36300
C998        C  0.10012117  0.17196431  0.84697339     0.37000
C999        C  0.95621289  0.00749696  0.86663449     0.40200
N1000       N  0.02655930  0.28790596  0.87261472    -0.37800
N1001       N  0.97699313  0.17303049  0.85187845    -0.39400
N1002       N  0.17151828  0.24105267  0.90968055    -0.37200
N1003       N  0.12177577  0.12783082  0.88816132    -0.39600
N1004       N  0.96357760  0.08416238  0.89288326    -0.39300
N1005       N  0.92543299  0.97560422  0.87075706    -0.37000
N1006       N  0.10202266  0.10063829  0.82171261    -0.38000
N1007       N  0.12805233  0.20590052  0.84291662    -0.39700
C1008       C  0.58350215  0.75952330  0.67778512    -0.04600
C1009       C  0.60867389  0.79289301  0.66763633     0.09500
C1010       C  0.63920581  0.83578586  0.67248145    -0.02000
C1011       C  0.64461742  0.84532739  0.68738441    -0.00300
C1012       C  0.61847884  0.81222750  0.69760148    -0.03900
C1013       C  0.58816023  0.76912915  0.69268258     0.03100
C1014       C  0.60408243  0.78261280  0.65181463     0.10000
C1015       C  0.66473436  0.87023699  0.66203962     0.35900
C1016       C  0.56289532  0.73404680  0.70295472     0.39300
C1017       C  0.56764131  0.77843186  0.64403504    -0.04200
C1018       C  0.56376213  0.76936219  0.62909304     0.02900
C1019       C  0.59657538  0.76459009  0.62175750    -0.03800
C1020       C  0.63282265  0.76831466  0.62968581    -0.00100
C1021       C  0.63660346  0.77754156  0.64459036    -0.02600
C1022       C  0.53464566  0.78456477  0.65138529     0.36600
C1023       C  0.66578461  0.76135168  0.62268407     0.40200
C1024       C  0.52666522  0.76652107  0.62125725     0.39400
C1025       C  0.67427894  0.78216417  0.65254853     0.36300
C1026       C  0.55315862  0.71505161  0.67287289     0.37000
C1027       C  0.67653004  0.88957537  0.69209933     0.40200
N1028       N  0.49705084  0.76423766  0.61501927    -0.37800
N1029       N  0.50836241  0.78952720  0.65724436    -0.39400
N1030       N  0.69207776  0.75575983  0.61712702    -0.37200
N1031       N  0.70445796  0.78623746  0.65890976    -0.39600
N1032       N  0.68496684  0.89753039  0.65364585    -0.39300
N1033       N  0.70223689  0.92482883  0.69583271    -0.37000
N1034       N  0.54283538  0.70604639  0.71115090    -0.38000
N1035       N  0.52895590  0.67955824  0.66896816    -0.39700
C1036       C  0.79917042  0.96293487  0.78621368    -0.04600
C1037       C  0.82663327  0.94465036  0.78508624     0.09500
C1038       C  0.81796138  0.91291089  0.77433291    -0.02000
C1039       C  0.78085393  0.89795087  0.76526129    -0.00300
C1040       C  0.75178739  0.91436238  0.76693228    -0.03900
C1041       C  0.76142927  0.94730581  0.77736185     0.03100
C1042       C  0.86291198  0.95622754  0.79578427     0.10000
C1043       C  0.84654377  0.89455396  0.77288125     0.35900
C1044       C  0.73240533  0.96500131  0.77909755     0.39300
C1045       C  0.85241155  0.94109434  0.81011804    -0.04200
C1046       C  0.88607660  0.94678383  0.81966784     0.02900
C1047       C  0.93030692  0.96444303  0.81468449    -0.03800
C1048       C  0.94120816  0.98340438  0.80066946    -0.00100
C1049       C  0.90763262  0.97991291  0.79142175    -0.02600
C1050       C  0.80667639  0.91871239  0.81501182     0.36600
C1051       C  0.98641542  0.00640400  0.79541192     0.40200
C1052       C  0.87482642  0.93545900  0.83473556     0.39400
C1053       C  0.91889139  0.00033979  0.77727200     0.36300
C1054       C  0.80962835  0.99757717  0.79661125     0.37000
C1055       C  0.77102539  0.86330515  0.75490676     0.40200
N1056       N  0.86504000  0.92609047  0.84668634    -0.37800
N1057       N  0.77029729  0.90112581  0.81897220    -0.39400
N1058       N  0.02222530  0.02595921  0.79094976    -0.37200
N1059       N  0.92784153  0.01679363  0.76601654    -0.39600
N1060       N  0.86953960  0.88019288  0.77165322    -0.39300
N1061       N  0.76305027  0.83555571  0.74669406    -0.37000
N1062       N  0.70912513  0.97894853  0.78056255    -0.38000
N1063       N  0.81802995  0.02515281  0.80493643    -0.39700
C1064       C  0.55236864  0.68358358  0.79215627    -0.04600
C1065       C  0.55433875  0.64752192  0.78647808     0.09500
C1066       C  0.56784784  0.64911665  0.77202341    -0.02000
C1067       C  0.57994774  0.68659843  0.76338958    -0.00300
C1068       C  0.57844187  0.72311625  0.76907343    -0.03900
C1069       C  0.56397642  0.72097288  0.78351952     0.03100
C1070       C  0.54185288  0.60755114  0.79566677     0.10000
C1071       C  0.56918282  0.61190729  0.76599480     0.35900
C1072       C  0.56189689  0.75755923  0.78976317     0.39300
C1073       C  0.50079265  0.56897468  0.79388353    -0.04200
C1074       C  0.48846119  0.53122521  0.80250595     0.02900
C1075       C  0.51756748  0.53053809  0.81343483    -0.03800
C1076       C  0.56111148  0.57000793  0.81404395    -0.00100
C1077       C  0.57158856  0.60807174  0.80581245    -0.02600
C1078       C  0.46983410  0.56915899  0.78352572     0.36600
C1079       C  0.59852919  0.57269914  0.82153503     0.40200
C1080       C  0.44334756  0.49535448  0.80058169     0.39400
C1081       C  0.61417955  0.64841841  0.80753633     0.36300
C1082       C  0.53870405  0.68247812  0.80699562     0.37000
C1083       C  0.59272581  0.68675094  0.74848380     0.40200
N1084       N  0.40671026  0.46958037  0.79818159    -0.37800
N1085       N  0.44519469  0.56948068  0.77533528    -0.39400
N1086       N  0.63025657  0.57708404  0.82690491    -0.37200
N1087       N  0.64791230  0.68059619  0.80898254    -0.39600
N1088       N  0.56999389  0.58214996  0.76113392    -0.39300
N1089       N  0.60295116  0.68694321  0.73659574    -0.37000
N1090       N  0.55993104  0.78651540  0.79478969    -0.38000
N1091       N  0.52820179  0.68230712  0.81884425    -0.39700
C1092       C  0.41736740  0.21074183  0.67748948    -0.04600
C1093       C  0.39191310  0.17547860  0.66804419     0.09500
C1094       C  0.36869020  0.13208500  0.67340355    -0.02000
C1095       C  0.37042735  0.12392874  0.68821544    -0.00300
C1096       C  0.39552856  0.15929025  0.69781927    -0.03900
C1097       C  0.42001707  0.20269896  0.69224005     0.03100
C1098       C  0.38888804  0.18427502  0.65244328     0.10000
C1099       C  0.34235230  0.09591116  0.66364291     0.35900
C1100       C  0.44789998  0.23949085  0.70157313     0.39300
C1101       C  0.41609983  0.17993851  0.64215812    -0.04200
C1102       C  0.41351385  0.18881468  0.62746429     0.02900
C1103       C  0.38311288  0.20154021  0.62294954    -0.03800
C1104       C  0.35648805  0.20657876  0.63338546    -0.00100
C1105       C  0.35909881  0.19754307  0.64802374    -0.02600
C1106       C  0.44619532  0.16553960  0.64671466     0.36600
C1107       C  0.32752973  0.22275937  0.62920880     0.40200
C1108       C  0.44148079  0.18375242  0.61702794     0.39400
C1109       C  0.33071248  0.20140121  0.65859289     0.36300
C1110       C  0.43989682  0.25554484  0.67204572     0.37000
C1111       C  0.34772319  0.07886620  0.69338817     0.40200
N1112       N  0.46399883  0.17988554  0.60874680    -0.37800
N1113       N  0.46992685  0.15372949  0.65036337    -0.39400
N1114       N  0.30462106  0.23588846  0.62588550    -0.37200
N1115       N  0.30802089  0.20431276  0.66704246    -0.39600
N1116       N  0.32134665  0.06721552  0.65580349    -0.39300
N1117       N  0.32973134  0.04284939  0.69745134    -0.37000
N1118       N  0.47090844  0.26903195  0.70884567    -0.38000
N1119       N  0.45736764  0.29126842  0.66772259    -0.39700
C1120       C  0.16103611  0.03941974  0.81173915    -0.04600
C1121       C  0.15688231  0.02441639  0.79739860     0.09500
C1122       C  0.11469008  0.99334579  0.79200069    -0.02000
C1123       C  0.07664045  0.97905257  0.80066032    -0.00300
C1124       C  0.08057228  0.99616501  0.81468816    -0.03900
C1125       C  0.12305898  0.02464445  0.82045210     0.03100
C1126       C  0.19711036  0.04133351  0.78800714     0.10000
C1127       C  0.11071771  0.97486801  0.77774179     0.35900
C1128       C  0.12784417  0.03712160  0.83554868     0.39300
C1129       C  0.22565171  0.02441045  0.78936010    -0.04200
C1130       C  0.26395478  0.04096053  0.78063086     0.02900
C1131       C  0.27435254  0.07513519  0.77058201    -0.03800
C1132       C  0.24633680  0.09304267  0.76967419    -0.00100
C1133       C  0.20747200  0.07555451  0.77812205    -0.02600
C1134       C  0.21565485  0.99017680  0.79988206     0.36600
C1135       C  0.25894938  0.13157022  0.76083293     0.40200
C1136       C  0.29229640  0.02239369  0.78199134     0.39400
C1137       C  0.17836974  0.09332048  0.77686694     0.36300
C1138       C  0.20458299  0.06913364  0.81762903     0.37000
C1139       C  0.03365843  0.94507555  0.79544142     0.40200
N1140       N  0.31486378  0.00754663  0.78316917    -0.37800
N1141       N  0.20767591  0.96313634  0.80838044    -0.39400
N1142       N  0.26929353  0.16267668  0.75395199    -0.37200
N1143       N  0.15496007  0.10724643  0.77586202    -0.39600
N1144       N  0.10752913  0.95978530  0.76641438    -0.39300
N1145       N  0.99928337  0.91793515  0.79136667    -0.37000
N1146       N  0.13162311  0.04703413  0.84758725    -0.38000
N1147       N  0.23940907  0.09250338  0.82233526    -0.39700
C1148       C  0.51725367  0.04161289  0.75206459    -0.04600
C1149       C  0.49967793  0.00346034  0.74345099     0.09500
C1150       C  0.46175781  0.99133336  0.73503362    -0.02000
C1151       C  0.44164202  0.01731194  0.73513670    -0.00300
C1152       C  0.45862837  0.05532268  0.74401589    -0.03900
C1153       C  0.49658734  0.06702044  0.75254116     0.03100
C1154       C  0.52103348  0.97583389  0.74338424     0.10000
C1155       C  0.44341049  0.95189212  0.72624950     0.35900
C1156       C  0.51380622  0.10432848  0.76226618     0.39300
C1157       C  0.51178156  0.94509722  0.75451999    -0.04200
C1158       C  0.53258081  0.91980864  0.75470240     0.02900
C1159       C  0.56305646  0.92504648  0.74371441    -0.03800
C1160       C  0.57193808  0.95567976  0.73247382    -0.00100
C1161       C  0.55092415  0.98079570  0.73231715    -0.02600
C1162       C  0.48063866  0.93947045  0.76581419     0.36600
C1163       C  0.60150358  0.96041847  0.72073767     0.40200
C1164       C  0.52334806  0.88924026  0.76647263     0.39400
C1165       C  0.55978964  0.01166561  0.72068650     0.36300
C1166       C  0.55693436  0.05480850  0.76044260     0.37000
C1167       C  0.40427313  0.00528737  0.72569555     0.40200
N1168       N  0.51599252  0.86477095  0.77583181    -0.37800
N1169       N  0.45578731  0.93498396  0.77482368    -0.39400
N1170       N  0.62503682  0.96415205  0.71136686    -0.37200
N1171       N  0.56667023  0.03614572  0.71137421    -0.39600
N1172       N  0.42878150  0.92040250  0.71926015    -0.39300
N1173       N  0.37455300  0.99551649  0.71810372    -0.37000
N1174       N  0.52746873  0.13398679  0.77006831    -0.38000
N1175       N  0.58868064  0.06540681  0.76708158    -0.30400
C1176       C  0.51001461  0.41678901  0.79126461    -0.04600
C1177       C  0.46939731  0.37700586  0.79194447     0.09500
C1178       C  0.43558019  0.37455837  0.80066022    -0.02000
C1179       C  0.44346521  0.40957198  0.81004336    -0.00300
C1180       C  0.48711297  0.44855861  0.81131814    -0.03900
C1181       C  0.51866648  0.45249682  0.80043780     0.03100
C1182       C  0.46161525  0.33767198  0.78320653     0.10000
C1183       C  0.39152377  0.33573917  0.79949828     0.35900
C1184       C  0.56268903  0.49095538  0.79924923     0.39300
C1185       C  0.45779125  0.30013487  0.79007558    -0.04200
C1186       C  0.44981600  0.26300744  0.78191628     0.02900
C1187       C  0.44416939  0.26228314  0.76677865    -0.03800
C1188       C  0.44741139  0.29975136  0.75996146    -0.00100
C1189       C  0.45616649  0.33714085  0.76812603    -0.02600
C1190       C  0.45951358  0.29838887  0.80567266     0.36600
C1191       C  0.44146150  0.30017563  0.74452073     0.40200
C1192       C  0.44473942  0.22453084  0.78935345     0.39400
C1193       C  0.45781927  0.37461965  0.76107954     0.36300
C1194       C  0.54431796  0.42000312  0.78162292     0.37000
C1195       C  0.40412822  0.40450764  0.81699371     0.40200
N1196       N  0.44065358  0.19393149  0.79533755    -0.37800
N1197       N  0.45970568  0.29565986  0.81810381    -0.39400
N1198       N  0.43637975  0.30105386  0.73223553    -0.37200
N1199       N  0.45921379  0.40463015  0.75553204    -0.39600
N1200       N  0.35650611  0.30495200  0.79846225    -0.39300
N1201       N  0.37123852  0.39861902  0.82195313    -0.37000
N1202       N  0.59847720  0.51985322  0.79741827    -0.38000
N1203       N  0.57159369  0.42260570  0.77393717    -0.39700
loop_ 
_geom_bond_atom_site_label_1 
_geom_bond_atom_site_label_2 
_geom_bond_distance 
_geom_bond_site_symmetry_2 
_ccdc_geom_bond_type 
O1            C4   1.267       .  A
O1           Cd6   2.484       .  S
C2           O11   1.264       .  A
C2            O7   1.268       .  A
C2         C1187   1.498       .  S
O3            C9   1.267       .  A
O3           Cd6   2.476       .  S
C4           O12   1.266       .  A
C4         C1152   1.504       .  S
C5           O10   1.267       .  A
C5            O8   1.265       .  A
C5         C1131   1.494       .  S
Cd6          O13   2.463       .  S
Cd6          O12   2.484       .  S
Cd6          O11   2.468       .  S
Cd6           O7   2.490       .  S
Cd6          O10   2.473       .  S
Cd6           O8   2.478       .  S
C9           O13   1.265       .  A
C9         C1096   1.494       .  S
O14          C17   1.266       .  A
O14         Cd19   2.474       .  S
C15          O24   1.265       .  A
C15          O20   1.266       .  A
C15        C1068   1.502       .  S
O16          C22   1.266       .  A
O16         Cd19   2.487       .  S
C17          O25   1.266       .  A
C17        C1159   1.497       .  S
C18          O23   1.266       .  A
C18          O21   1.265       .  A
C18        C1040   1.488       .  S
Cd19         O26   2.471       .  S
Cd19         O25   2.484       .  S
Cd19         O24   2.476       .  S
Cd19         O20   2.494       .  S
Cd19         O23   2.467       .  S
Cd19         O21   2.460       .  S
C22          O26   1.265       .  A
C22        C1012   1.494       .  S
C27          C28   1.519   1_655  S
C27          C33   1.541       .  S
C27          C31   1.549   1_655  S
C27         C956   1.545       .  S
C28          H35   1.072       .  S
C28          C29   1.358       .  D
C29          C30   1.551       .  S
C29        C1124   1.483       .  S
C30          C34   1.540   1_455  S
C30          C32   1.540   1_565  S
C30          H36   1.101   1_565  S
C31          H37   1.062   1_455  S
C31          C32   1.375   1_565  D
C32         C984   1.511       .  S
C33          H38   1.095       .  S
C33          C34   1.368       .  D
C34        C1047   1.509       .  S
O39          C42   1.267       .  A
O39         Cd44   2.482       .  S
C40          O49   1.264       .  A
C40          O45   1.265       .  A
C40         C935   1.492       .  S
O41          C47   1.265       .  A
O41         Cd44   2.458       .  S
C42          O50   1.264       .  A
C42         C900   1.493       .  S
C43          O48   1.266       .  A
C43          O46   1.265       .  A
C43         C991   1.485       .  S
Cd44         O51   2.478       .  S
Cd44         O50   2.451       .  S
Cd44         O49   2.485       .  S
Cd44         O45   2.479       .  S
Cd44         O48   2.451       .  S
Cd44         O46   2.452       .  S
C47          O51   1.267       .  A
C47         C879   1.494       .  S
O52          C55   1.268       .  A
O52         Cd57   2.492       .  S
C53          O62   1.265       .  A
C53          O58   1.265       .  A
C53         C844   1.489       .  S
O54          C60   1.265       .  A
O54         Cd57   2.444       .  S
C55          O63   1.265       .  A
C55         C907   1.492       .  S
C56          O61   1.265       .  A
C56          O59   1.265       .  A
C56         C963   1.485       .  S
Cd57         O64   2.464       .  S
Cd57         O63   2.455       .  S
Cd57         O62   2.476       .  S
Cd57         O58   2.464       .  S
Cd57         O61   2.460       .  S
Cd57         O59   2.454       .  S
C60          O64   1.267       .  A
C60         C816   1.485       .  S
C65         C851   1.617       .  S
C65         C928   1.615       .  S
C65        C1075   1.616       .  S
C65        C1180   1.614       .  S
C66          C67   1.536       .  S
C66          C72   1.543       .  S
C66          C70   1.535       .  S
C66         C739   1.561       .  S
C67          H74   1.086       .  S
C67          C68   1.363       .  D
C68          C69   1.541   1_655  S
C68         C760   1.488       .  S
C69          C73   1.540       .  S
C69          C71   1.541       .  S
C69          H75   1.110   1_565  S
C70          H76   1.093       .  S
C70          C71   1.365   1_655  D
C71         C711   1.500   1_565  S
C72          H77   1.082       .  S
C72          C73   1.369   1_655  D
C73         C788   1.494       .  S
O78          C81   1.266       .  A
O78         Cd83   2.485       .  S
C79          O88   1.265       .  A
C79          O84   1.266       .  A
C79         C655   1.498       .  S
O80          C86   1.266       .  A
O80         Cd83   2.452       .  S
C81          O89   1.263       .  A
C81         C683   1.486       .  S
C82          O87   1.263       .  A
C82          O85   1.264       .  A
C82         C620   1.480       .  S
Cd83         O90   2.447       .  S
Cd83         O89   2.452       .  S
Cd83         O88   2.471       .  S
Cd83         O84   2.466       .  S
Cd83         O87   2.450       .  S
Cd83         O85   2.468       .  S
C86          O90   1.267       .  A
C86         C795   1.485       .  S
O91          C94   1.266       .  A
O91         Cd96   2.465       .  S
C92         O101   1.264       .  A
C92          O97   1.265       .  A
C92         C648   1.494       .  S
O93          C99   1.267       .  A
O93         Cd96   2.478       .  S
C94         O102   1.265       .  A
C94         C592   1.486       .  S
C95         O100   1.266       .  A
C95          O98   1.266       .  A
C95         C564   1.496       .  S
Cd96        O103   2.443       .  S
Cd96        O102   2.463       .  S
Cd96        O101   2.474       .  S
Cd96         O97   2.479       .  S
Cd96        O100   2.465       .  S
Cd96         O98   2.475       .  S
C99         O103   1.263       .  A
C99         C767   1.494       .  S
C104        C508   1.607   1_655  S
C104        C543   1.608       .  S
C104        C599   1.610       .  S
C104        C676   1.611   1_655  S
O105        C108   1.268       .  A
O105       Cd110   2.496       .  S
C106        O115   1.263       .  A
C106        O111   1.267       .  A
C106        C487   1.494       .  S
O107        C113   1.265       .  A
O107       Cd110   2.460       .  S
C108        O116   1.264       .  A
C108        C536   1.491       .  S
C109        O114   1.264       .  A
C109        O112   1.267       .  A
C109        C823   1.485       .  S
Cd110       O117   2.425       .  S
Cd110       O116   2.437       .  S
Cd110       O115   2.453       .  S
Cd110       O111   2.483       .  S
Cd110       O114   2.451       .  S
Cd110       O112   2.466       .  S
C113        O117   1.264       .  A
C113        C732   1.482       .  S
O118        C121   1.264       .  A
O118       Cd123   2.474       .  S
C119        O128   1.267       .  A
C119        O124   1.265       .  A
C119        C515   1.494       .  S
O120        C126   1.265       .  A
O120       Cd123   2.468       .  S
C121        O129   1.264       .  A
C121        C480   1.480       .  S
C122        O127   1.265       .  A
C122        O125   1.262       .  A
C122        C704   1.484       .  S
Cd123       O130   2.487       .  S
Cd123       O129   2.459       .  S
Cd123       O128   2.476       .  S
Cd123       O124   2.468       .  S
Cd123       O127   2.482       .  S
Cd123       O125   2.447       .  S
C126        O130   1.267       .  A
C126        C872   1.493       .  S
C131        C132   1.541   1_665  S
C131        C137   1.539       .  S
C131        C135   1.526       .  S
C131        C368   1.549   1_565  S
C132        H139   1.082       .  S
C132        C133   1.364       .  D
C133        C134   1.541   1_445  S
C133        C459   1.496       .  S
C134        C138   1.542       .  S
C134        C136   1.550       .  S
C134        H140   1.108       .  S
C135        H141   1.088       .  S
C135        C136   1.367       .  D
C136        C403   1.504   1_655  S
C137        H142   1.085       .  S
C137        C138   1.366       .  D
C138        C424   1.488       .  S
O143        C146   1.270       .  A
O143       Cd148   2.495       .  S
C144        O153   1.264       .  A
C144        O149   1.268       .  A
C144        C319   1.494       .  S
O145        C151   1.267       .  A
O145       Cd148   2.461       .  S
C146        O154   1.263       .  A
C146        C340   1.486       .  S
C147        O152   1.265       .  A
C147        O150   1.266       .  A
C147       C1103   1.490       .  S
Cd148       O155   2.446       .  S
Cd148       O154   2.434       .  S
Cd148       O153   2.456       .  S
Cd148       O149   2.495       .  S
Cd148       O152   2.449       .  S
Cd148       O150   2.474       .  S
C151        O155   1.266       .  A
C151        C452   1.488       .  S
O156        C159   1.266       .  A
O156       Cd161   2.477       .  S
C157        O166   1.264       .  A
C157        O162   1.265       .  A
C157        C284   1.489       .  S
O158        C164   1.266       .  A
O158       Cd161   2.458       .  S
C159        O167   1.265       .  A
C159        C312   1.485       .  S
C160        O165   1.265       .  A
C160        O163   1.264       .  A
C160        C431   1.491       .  S
Cd161       O168   2.475       .  S
Cd161       O167   2.445       .  S
Cd161       O166   2.462       .  S
Cd161       O162   2.477       .  S
Cd161       O165   2.488       .  S
Cd161       O163   2.467       .  S
C164        O168   1.266       .  A
C164       C1019   1.495       .  S
C169        C228   1.607       .  S
C169        C256   1.609   1_565  S
C169        C291   1.608       .  S
C169        C347   1.612   1_565  S
O170        C173   1.267       .  A
O170       Cd175   2.496       .  S
C171        O180   1.265       .  A
C171        O176   1.267       .  A
C171        C200   1.494       .  S
O172        C178   1.265       .  A
O172       Cd175   2.451       .  S
C173        O181   1.262       .  A
C173        C263   1.494       .  S
C174        O179   1.264       .  A
C174        O177   1.266       .  A
C174        C571   1.485       .  S
Cd175       O182   2.452       .  S
Cd175       O181   2.442       .  S
Cd175       O180   2.446       .  S
Cd175       O176   2.483       .  S
Cd175       O179   2.462       .  S
Cd175       O177   2.473       .  S
C178        O182   1.265       .  A
C178        C375   1.487       .  S
O183        C186   1.267       .  A
O183       Cd188   2.473       .  S
C184        O193   1.264       .  A
C184        O189   1.266       .  A
C184        C207   1.491       .  S
O185        C191   1.267       .  A
O185       Cd188   2.471       .  S
C186        O194   1.264       .  A
C186        C235   1.495       .  S
C187        O192   1.264       .  A
C187        O190   1.265       .  A
C187        C627   1.487       .  S
Cd188       O195   2.438       .  S
Cd188       O194   2.458       .  S
Cd188       O193   2.469       .  S
Cd188       O189   2.478       .  S
Cd188       O192   2.459       .  S
Cd188       O190   2.469       .  S
C191        O195   1.265       .  A
C191        C396   1.480       .  S
C196        C197   1.410       .  A
C196        C201   1.413       .  A
C196        C214   1.451       .  S
C197        C202   1.497       .  S
C197        C198   1.408       .  A
C198        C199   1.410       .  A
C198        C203   1.451       .  S
C199        C200   1.418       .  A
C199        C215   1.451       .  S
C200        C201   1.419       .  A
C201        C204   1.451       .  S
C202        C205   1.409       .  A
C202        C209   1.410   1_655  A
C203        N220   1.157   1_655  T
C204        N222   1.158       .  T
C205        C206   1.412   1_655  A
C205        C210   1.451       .  S
C206        C207   1.417       .  A
C206        C212   1.451   1_455  S
C207        C208   1.417       .  A
C208        C209   1.411       .  A
C208        C211   1.451       .  S
C209        C213   1.451       .  S
C210        N217   1.157       .  T
C211        N218   1.157       .  T
C212        N216   1.157       .  T
C213        N219   1.157       .  T
C214        N223   1.157       .  T
C215        N221   1.157       .  T
C224        C225   1.400       .  A
C224        C229   1.418       .  A
C224        C242   1.457       .  S
C225        C230   1.499       .  S
C225        C226   1.396       .  A
C226        C227   1.413       .  A
C226        C231   1.455       .  S
C227        C228   1.452       .  A
C227        C243   1.451       .  S
C228        C229   1.450       .  A
C229        C232   1.447       .  S
C230        C233   1.410       .  A
C230        C237   1.409       .  A
C231        N248   1.157       .  T
C232        N250   1.157       .  T
C233        C234   1.412       .  A
C233        C238   1.452       .  S
C234        C235   1.419       .  A
C234        C240   1.451       .  S
C235        C236   1.419       .  A
C236        C237   1.410       .  A
C236        C239   1.451       .  S
C237        C241   1.451       .  S
C238        N245   1.157       .  T
C239        N246   1.157       .  T
C240        N244   1.157       .  T
C241        N247   1.157       .  T
C242        N251   1.157       .  T
C243        N249   1.157       .  T
C252        C253   1.398       .  A
C252        C257   1.415       .  A
C252        C270   1.454       .  S
C253        C258   1.501       .  S
C253        C254   1.399       .  A
C254        C255   1.418       .  A
C254        C259   1.457       .  S
C255        C256   1.450       .  A
C255        C271   1.447   1_545  S
C256        C257   1.451       .  A
C257        C260   1.452       .  S
C258        C261   1.412       .  A
C258        C265   1.410       .  A
C259        N276   1.157       .  T
C260        N278   1.157       .  T
C261        C262   1.411       .  A
C261        C266   1.451       .  S
C262        C263   1.417       .  A
C262        C268   1.451       .  S
C263        C264   1.418       .  A
C264        C265   1.411       .  A
C264        C267   1.451       .  S
C265        C269   1.451       .  S
C266        N273   1.157       .  T
C267        N274   1.157       .  T
C268        N272   1.157       .  T
C269        N275   1.157   1_545  T
C270        N279   1.157       .  T
C271        N277   1.157       .  T
C280        C281   1.416       .  A
C280        C285   1.412       .  A
C280        C298   1.452       .  S
C281        C286   1.505       .  S
C281        C282   1.414       .  A
C282        C283   1.411       .  A
C282        C287   1.450       .  S
C283        C284   1.416       .  A
C283        C299   1.452       .  S
C284        C285   1.414       .  A
C285        C288   1.451       .  S
C286        C289   1.404       .  A
C286        C293   1.402       .  A
C287        N304   1.157       .  T
C288        N306   1.157       .  T
C289        C290   1.418       .  A
C289        C294   1.453       .  S
C290        C291   1.448       .  A
C290        C296   1.450   1_565  S
C291        C292   1.447       .  A
C292        C293   1.410       .  A
C292        C295   1.449       .  S
C293        C297   1.456       .  S
C294        N301   1.157       .  T
C295        N302   1.157       .  T
C296        N300   1.157       .  T
C297        N303   1.157       .  T
C298        N307   1.157       .  T
C299        N305   1.157       .  T
C308        C309   1.412       .  A
C308        C313   1.410       .  A
C308        C326   1.450       .  S
C309        C314   1.499       .  S
C309        C310   1.412       .  A
C310        C311   1.412       .  A
C310        C315   1.450       .  S
C311        C312   1.414       .  A
C311        C327   1.451       .  S
C312        C313   1.414       .  A
C313        C316   1.452       .  S
C314        C317   1.410       .  A
C314        C321   1.411       .  A
C315        N332   1.157       .  T
C316        N334   1.158       .  T
C317        C318   1.413       .  A
C317        C322   1.451       .  S
C318        C319   1.418       .  A
C318        C324   1.451       .  S
C319        C320   1.416       .  A
C320        C321   1.412       .  A
C320        C323   1.450       .  S
C321        C325   1.451       .  S
C322        N329   1.157       .  T
C323        N330   1.157       .  T
C324        N328   1.157       .  T
C325        N331   1.157       .  T
C326        N335   1.157       .  T
C327        N333   1.157       .  T
C336        C337   1.414       .  A
C336        C341   1.412       .  A
C336        C354   1.451       .  S
C337        C342   1.502       .  S
C337        C338   1.411       .  A
C338        C339   1.411       .  A
C338        C343   1.450       .  S
C339        C340   1.416       .  A
C339        C355   1.453       .  S
C340        C341   1.412       .  A
C341        C344   1.450       .  S
C342        C345   1.400       .  A
C342        C349   1.399       .  A
C343        N360   1.157       .  T
C344        N362   1.157       .  T
C345        C346   1.419   1_545  A
C345        C350   1.453   1_545  S
C346        C347   1.450   1_565  A
C346        C352   1.450       .  S
C347        C348   1.449       .  A
C348        C349   1.412       .  A
C348        C351   1.447       .  S
C349        C353   1.456       .  S
C350        N357   1.157       .  T
C351        N358   1.157       .  T
C352        N356   1.157       .  T
C353        N359   1.157       .  T
C354        N363   1.157       .  T
C355        N361   1.158       .  T
C364        C365   1.406       .  A
C364        C369   1.411       .  A
C364        C382   1.452       .  S
C365        C370   1.493       .  S
C365        C366   1.406       .  A
C366        C367   1.409       .  A
C366        C371   1.452       .  S
C367        C368   1.427       .  A
C367        C383   1.451   1_655  S
C368        C369   1.426       .  A
C369        C372   1.449   1_545  S
C370        C373   1.410       .  A
C370        C377   1.410       .  A
C371        N388   1.157   1_655  T
C372        N390   1.157       .  T
C373        C374   1.408       .  A
C373        C378   1.452       .  S
C374        C375   1.417       .  A
C374        C380   1.452       .  S
C375        C376   1.417       .  A
C376        C377   1.409       .  A
C376        C379   1.451       .  S
C377        C381   1.451       .  S
C378        N385   1.157       .  T
C379        N386   1.157       .  T
C380        N384   1.158       .  T
C381        N387   1.157       .  T
C382        N391   1.157   1_545  T
C383        N389   1.157       .  T
C392        C393   1.412       .  A
C392        C397   1.411       .  A
C392        C410   1.450   1_455  S
C393        C398   1.494       .  S
C393        C394   1.410       .  A
C394        C395   1.408       .  A
C394        C399   1.451       .  S
C395        C396   1.414       .  A
C395        C411   1.453       .  S
C396        C397   1.412       .  A
C397        C400   1.450       .  S
C398        C401   1.408       .  A
C398        C405   1.406       .  A
C399        N416   1.157       .  T
C400        N418   1.157   1_455  T
C401        C402   1.413   1_455  A
C401        C406   1.451       .  S
C402        C403   1.419   1_655  A
C402        C408   1.448       .  S
C403        C404   1.423       .  A
C404        C405   1.408       .  A
C404        C407   1.451       .  S
C405        C409   1.452       .  S
C406        N413   1.157   1_455  T
C407        N414   1.157   1_565  T
C408        N412   1.157       .  T
C409        N415   1.157       .  T
C410        N419   1.157       .  T
C411        N417   1.157       .  T
C420        C421   1.413       .  A
C420        C425   1.412       .  A
C420        C438   1.451       .  S
C421        C426   1.500       .  S
C421        C422   1.411       .  A
C422        C423   1.409       .  A
C422        C427   1.450       .  S
C423        C424   1.413       .  A
C423        C439   1.451       .  S
C424        C425   1.410       .  A
C425        C428   1.447       .  S
C426        C429   1.412       .  A
C426        C433   1.412       .  A
C427        N444   1.157       .  T
C428        N446   1.157       .  T
C429        C430   1.409       .  A
C429        C434   1.453       .  S
C430        C431   1.416       .  A
C430        C436   1.452       .  S
C431        C432   1.416       .  A
C432        C433   1.414       .  A
C432        C435   1.450       .  S
C433        C437   1.450       .  S
C434        N441   1.157       .  T
C435        N442   1.157       .  T
C436        N440   1.157       .  T
C437        N443   1.157       .  T
C438        N447   1.157       .  T
C439        N445   1.157       .  T
C448        C449   1.408       .  A
C448        C453   1.410       .  A
C448        C466   1.451       .  S
C449        C454   1.494       .  S
C449        C450   1.410       .  A
C450        C451   1.410       .  A
C450        C455   1.451       .  S
C451        C452   1.416       .  A
C451        C467   1.451       .  S
C452        C453   1.417       .  A
C453        C456   1.451       .  S
C454        C457   1.407       .  A
C454        C461   1.410       .  A
C455        N472   1.157       .  T
C456        N474   1.157       .  T
C457        C458   1.410       .  A
C457        C462   1.451       .  S
C458        C459   1.420       .  A
C458        C464   1.452       .  S
C459        C460   1.416       .  A
C460        C461   1.411       .  A
C460        C463   1.449   1_545  S
C461        C465   1.452       .  S
C462        N469   1.157       .  T
C463        N470   1.157       .  T
C464        N468   1.157   1_455  T
C465        N471   1.157       .  T
C466        N475   1.157       .  T
C467        N473   1.157       .  T
C476        C477   1.412       .  A
C476        C481   1.412       .  A
C476        C494   1.450       .  S
C477        C482   1.497       .  S
C477        C478   1.411       .  A
C478        C479   1.409       .  A
C478        C483   1.450       .  S
C479        C480   1.412       .  A
C479        C495   1.451       .  S
C480        C481   1.413       .  A
C481        C484   1.451       .  S
C482        C485   1.411       .  A
C482        C489   1.409       .  A
C483        N500   1.157       .  T
C484        N502   1.157       .  T
C485        C486   1.412       .  A
C485        C490   1.451       .  S
C486        C487   1.417       .  A
C486        C492   1.451       .  S
C487        C488   1.420       .  A
C488        C489   1.411       .  A
C488        C491   1.452       .  S
C489        C493   1.451       .  S
C490        N497   1.157       .  T
C491        N498   1.158       .  T
C492        N496   1.157       .  T
C493        N499   1.157       .  T
C494        N503   1.157       .  T
C495        N501   1.157       .  T
C504        C505   1.404       .  A
C504        C509   1.416       .  A
C504        C522   1.455       .  S
C505        C510   1.507       .  S
C505        C506   1.402       .  A
C506        C507   1.417   1_455  A
C506        C511   1.454   1_455  S
C507        C508   1.449   1_655  A
C507        C523   1.450       .  S
C508        C509   1.446       .  A
C509        C512   1.447       .  S
C510        C513   1.412       .  A
C510        C517   1.415       .  A
C511        N528   1.157       .  T
C512        N530   1.157       .  T
C513        C514   1.412       .  A
C513        C518   1.452       .  S
C514        C515   1.418       .  A
C514        C520   1.451       .  S
C515        C516   1.414       .  A
C516        C517   1.413       .  A
C516        C519   1.451       .  S
C517        C521   1.450       .  S
C518        N525   1.157       .  T
C519        N526   1.157       .  T
C520        N524   1.158       .  T
C521        N527   1.157       .  T
C522        N531   1.157       .  T
C523        N529   1.157       .  T
C532        C533   1.412       .  A
C532        C537   1.414       .  A
C532        C550   1.450       .  S
C533        C538   1.500       .  S
C533        C534   1.409       .  A
C534        C535   1.408       .  A
C534        C539   1.452       .  S
C535        C536   1.419       .  A
C535        C551   1.452       .  S
C536        C537   1.416       .  A
C537        C540   1.450       .  S
C538        C541   1.397       .  A
C538        C545   1.403       .  A
C539        N556   1.157       .  T
C540        N558   1.157       .  T
C541        C542   1.412       .  A
C541        C546   1.456       .  S
C542        C543   1.450       .  A
C542        C548   1.449       .  S
C543        C544   1.445       .  A
C544        C545   1.418       .  A
C544        C547   1.449       .  S
C545        C549   1.454       .  S
C546        N553   1.157       .  T
C547        N554   1.157       .  T
C548        N552   1.157   1_655  T
C549        N555   1.157       .  T
C550        N559   1.157       .  T
C551        N557   1.157       .  T
C560        C561   1.409       .  A
C560        C565   1.412       .  A
C560        C578   1.451       .  S
C561        C566   1.498       .  S
C561        C562   1.410       .  A
C562        C563   1.412       .  A
C562        C567   1.451       .  S
C563        C564   1.419       .  A
C563        C579   1.451       .  S
C564        C565   1.419       .  A
C565        C568   1.451       .  S
C566        C569   1.411       .  A
C566        C573   1.411       .  A
C567        N584   1.157       .  T
C568        N586   1.157       .  T
C569        C570   1.411       .  A
C569        C574   1.450       .  S
C570        C571   1.414       .  A
C570        C576   1.451       .  S
C571        C572   1.414       .  A
C572        C573   1.411       .  A
C572        C575   1.451       .  S
C573        C577   1.450       .  S
C574        N581   1.157       .  T
C575        N582   1.157       .  T
C576        N580   1.157       .  T
C577        N583   1.157       .  T
C578        N587   1.157       .  T
C579        N585   1.157       .  T
C588        C589   1.411       .  A
C588        C593   1.410       .  A
C588        C606   1.451       .  S
C589        C594   1.501       .  S
C589        C590   1.413       .  A
C590        C591   1.412       .  A
C590        C595   1.449       .  S
C591        C592   1.413       .  A
C591        C607   1.452       .  S
C592        C593   1.414       .  A
C593        C596   1.451       .  S
C594        C597   1.399       .  A
C594        C601   1.399       .  A
C595        N612   1.157       .  T
C596        N614   1.157       .  T
C597        C598   1.418       .  A
C597        C602   1.456       .  S
C598        C599   1.451       .  A
C598        C604   1.446       .  S
C599        C600   1.450       .  A
C600        C601   1.416       .  A
C600        C603   1.450   1_655  S
C601        C605   1.454       .  S
C602        N609   1.157       .  T
C603        N610   1.157       .  T
C604        N608   1.157       .  T
C605        N611   1.157       .  T
C606        N615   1.157       .  T
C607        N613   1.157       .  T
C616        C617   1.410       .  A
C616        C621   1.408       .  A
C616        C634   1.451       .  S
C617        C622   1.492       .  S
C617        C618   1.410       .  A
C618        C619   1.409       .  A
C618        C623   1.451       .  S
C619        C620   1.414       .  A
C619        C635   1.451       .  S
C620        C621   1.414       .  A
C621        C624   1.451       .  S
C622        C625   1.409       .  A
C622        C629   1.410       .  A
C623        N640   1.157       .  T
C624        N642   1.157       .  T
C625        C626   1.410       .  A
C625        C630   1.451       .  S
C626        C627   1.417       .  A
C626        C632   1.451       .  S
C627        C628   1.416       .  A
C628        C629   1.409       .  A
C628        C631   1.451       .  S
C629        C633   1.452       .  S
C630        N637   1.157       .  T
C631        N638   1.157       .  T
C632        N636   1.157       .  T
C633        N639   1.157       .  T
C634        N643   1.157       .  T
C635        N641   1.157       .  T
C644        C645   1.409       .  A
C644        C649   1.411   1_565  A
C644        C662   1.451       .  S
C645        C650   1.497       .  S
C645        C646   1.409   1_565  A
C646        C647   1.412       .  A
C646        C651   1.451       .  S
C647        C648   1.418       .  A
C647        C663   1.451       .  S
C648        C649   1.418       .  A
C649        C652   1.451   1_545  S
C650        C653   1.409       .  A
C650        C657   1.408       .  A
C651        N668   1.157       .  T
C652        N670   1.157       .  T
C653        C654   1.412       .  A
C653        C658   1.452   1_565  S
C654        C655   1.421       .  A
C654        C660   1.451       .  S
C655        C656   1.421       .  A
C656        C657   1.412       .  A
C656        C659   1.451       .  S
C657        C661   1.451       .  S
C658        N665   1.157       .  T
C659        N666   1.157       .  T
C660        N664   1.158       .  T
C661        N667   1.157       .  T
C662        N671   1.157       .  T
C663        N669   1.157       .  T
C672        C673   1.401       .  A
C672        C677   1.418       .  A
C672        C690   1.455       .  S
C673        C678   1.501       .  S
C673        C674   1.399       .  A
C674        C675   1.413       .  A
C674        C679   1.457       .  S
C675        C676   1.451       .  A
C675        C691   1.449   1_455  S
C676        C677   1.448       .  A
C677        C680   1.448       .  S
C678        C681   1.412       .  A
C678        C685   1.413       .  A
C679        N696   1.157       .  T
C680        N698   1.157       .  T
C681        C682   1.409       .  A
C681        C686   1.452       .  S
C682        C683   1.415       .  A
C682        C688   1.451       .  S
C683        C684   1.413       .  A
C684        C685   1.411       .  A
C684        C687   1.451       .  S
C685        C689   1.450       .  S
C686        N693   1.157       .  T
C687        N694   1.157       .  T
C688        N692   1.157       .  T
C689        N695   1.157       .  T
C690        N699   1.157       .  T
C691        N697   1.157       .  T
C700        C701   1.410       .  A
C700        C705   1.411       .  A
C700        C718   1.450       .  S
C701        C706   1.493       .  S
C701        C702   1.409       .  A
C702        C703   1.408       .  A
C702        C707   1.452       .  S
C703        C704   1.416       .  A
C703        C719   1.451       .  S
C704        C705   1.414       .  A
C705        C708   1.451       .  S
C706        C709   1.408       .  A
C706        C713   1.405       .  A
C707        N724   1.157       .  T
C708        N726   1.157       .  T
C709        C710   1.414       .  A
C709        C714   1.451       .  S
C710        C711   1.419       .  A
C710        C716   1.448       .  S
C711        C712   1.419       .  A
C712        C713   1.407       .  A
C712        C715   1.448   1_455  S
C713        C717   1.453       .  S
C714        N721   1.157       .  T
C715        N722   1.156   1_545  T
C716        N720   1.157       .  T
C717        N723   1.157   1_455  T
C718        N727   1.157       .  T
C719        N725   1.157       .  T
C728        C729   1.409       .  A
C728        C733   1.408       .  A
C728        C746   1.451       .  S
C729        C734   1.492       .  S
C729        C730   1.410       .  A
C730        C731   1.408       .  A
C730        C735   1.451       .  S
C731        C732   1.416       .  A
C731        C747   1.451       .  S
C732        C733   1.415       .  A
C733        C736   1.452       .  S
C734        C737   1.403       .  A
C734        C741   1.399       .  A
C735        N752   1.157       .  T
C736        N754   1.157       .  T
C737        C738   1.413       .  A
C737        C742   1.455       .  S
C738        C739   1.434       .  A
C738        C744   1.447       .  S
C739        C740   1.437       .  A
C740        C741   1.411       .  A
C740        C743   1.450       .  S
C741        C745   1.454       .  S
C742        N749   1.157       .  T
C743        N750   1.157       .  T
C744        N748   1.157   1_655  T
C745        N751   1.157       .  T
C746        N755   1.157       .  T
C747        N753   1.157       .  T
C756        C757   1.410       .  A
C756        C761   1.410       .  A
C756        C774   1.452       .  S
C757        C762   1.493       .  S
C757        C758   1.409   1_545  A
C758        C759   1.408       .  A
C758        C763   1.450       .  S
C759        C760   1.416       .  A
C759        C775   1.452       .  S
C760        C761   1.412   1_565  A
C761        C764   1.448       .  S
C762        C765   1.408       .  A
C762        C769   1.408       .  A
C763        N780   1.157       .  T
C764        N782   1.157       .  T
C765        C766   1.409       .  A
C765        C770   1.452   1_545  S
C766        C767   1.420       .  A
C766        C772   1.452       .  S
C767        C768   1.420       .  A
C768        C769   1.411       .  A
C768        C771   1.451       .  S
C769        C773   1.451       .  S
C770        N777   1.157       .  T
C771        N778   1.157       .  T
C772        N776   1.157       .  T
C773        N779   1.157       .  T
C774        N783   1.157       .  T
C775        N781   1.157       .  T
C784        C785   1.410       .  A
C784        C789   1.405       .  A
C784        C802   1.451       .  S
C785        C790   1.496       .  S
C785        C786   1.412       .  A
C786        C787   1.414       .  A
C786        C791   1.451       .  S
C787        C788   1.414       .  A
C787        C803   1.448       .  S
C788        C789   1.414       .  A
C789        C792   1.451       .  S
C790        C793   1.412       .  A
C790        C797   1.412       .  A
C791        N808   1.157       .  T
C792        N810   1.157       .  T
C793        C794   1.411       .  A
C793        C798   1.450       .  S
C794        C795   1.414       .  A
C794        C800   1.451       .  S
C795        C796   1.416       .  A
C796        C797   1.409       .  A
C796        C799   1.452       .  S
C797        C801   1.452       .  S
C798        N805   1.157   1_565  T
C799        N806   1.158       .  T
C800        N804   1.157       .  T
C801        N807   1.157       .  T
C802        N811   1.157       .  T
C803        N809   1.157   1_565  T
C812        C813   1.409       .  A
C812        C817   1.410       .  A
C812        C830   1.450       .  S
C813        C818   1.493   1_556  S
C813        C814   1.410       .  A
C814        C815   1.409       .  A
C814        C819   1.451       .  S
C815        C816   1.414       .  A
C815        C831   1.451       .  S
C816        C817   1.416       .  A
C817        C820   1.451       .  S
C818        C821   1.409       .  A
C818        C825   1.410       .  A
C819        N836   1.157       .  T
C820        N838   1.157       .  T
C821        C822   1.411       .  A
C821        C826   1.450       .  S
C822        C823   1.417       .  A
C822        C828   1.451       .  S
C823        C824   1.414       .  A
C824        C825   1.408       .  A
C824        C827   1.451       .  S
C825        C829   1.451   1_554  S
C826        N833   1.157       .  T
C827        N834   1.157       .  T
C828        N832   1.158       .  T
C829        N835   1.157       .  T
C830        N839   1.157       .  T
C831        N837   1.157       .  T
C840        C841   1.412       .  A
C840        C845   1.412       .  A
C840        C858   1.451       .  S
C841        C846   1.501       .  S
C841        C842   1.411       .  A
C842        C843   1.411       .  A
C842        C847   1.451       .  S
C843        C844   1.417       .  A
C843        C859   1.452       .  S
C844        C845   1.414       .  A
C845        C848   1.450       .  S
C846        C849   1.399       .  A
C846        C853   1.396       .  A
C847        N864   1.157       .  T
C848        N866   1.157       .  T
C849        C850   1.419       .  A
C849        C854   1.455       .  S
C850        C851   1.451       .  A
C850        C856   1.449       .  S
C851        C852   1.454       .  A
C852        C853   1.416       .  A
C852        C855   1.445       .  S
C853        C857   1.458       .  S
C854        N861   1.157       .  T
C855        N862   1.156       .  T
C856        N860   1.157       .  T
C857        N863   1.157       .  T
C858        N867   1.157       .  T
C859        N865   1.158       .  T
C868        C869   1.411       .  A
C868        C873   1.413       .  A
C868        C886   1.450       .  S
C869        C874   1.500   1_554  S
C869        C870   1.410       .  A
C870        C871   1.412       .  A
C870        C875   1.451   1_554  S
C871        C872   1.418       .  A
C871        C887   1.451       .  S
C872        C873   1.415       .  A
C873        C876   1.450       .  S
C874        C877   1.411       .  A
C874        C881   1.410       .  A
C875        N892   1.157       .  T
C876        N894   1.157       .  T
C877        C878   1.414       .  A
C877        C882   1.450       .  S
C878        C879   1.417       .  A
C878        C884   1.451       .  S
C879        C880   1.418       .  A
C880        C881   1.411       .  A
C880        C883   1.452       .  S
C881        C885   1.451       .  S
C882        N889   1.157       .  T
C883        N890   1.157       .  T
C884        N888   1.157       .  T
C885        N891   1.157       .  T
C886        N895   1.157       .  T
C887        N893   1.157       .  T
C896        C897   1.411       .  A
C896        C901   1.412       .  A
C896        C914   1.451   1_455  S
C897        C902   1.502   1_455  S
C897        C898   1.413       .  A
C898        C899   1.413       .  A
C898        C903   1.451       .  S
C899        C900   1.416       .  A
C899        C915   1.451       .  S
C900        C901   1.418       .  A
C901        C904   1.452       .  S
C902        C905   1.411       .  A
C902        C909   1.413       .  A
C903        N920   1.157       .  T
C904        N922   1.158       .  T
C905        C906   1.412       .  A
C905        C910   1.451   1_655  S
C906        C907   1.416       .  A
C906        C912   1.451       .  S
C907        C908   1.415       .  A
C908        C909   1.413       .  A
C908        C911   1.451       .  S
C909        C913   1.451       .  S
C910        N917   1.157       .  T
C911        N918   1.157       .  T
C912        N916   1.157       .  T
C913        N919   1.157       .  T
C914        N923   1.157       .  T
C915        N921   1.157       .  T
C924        C925   1.398       .  A
C924        C929   1.419       .  A
C924        C942   1.457       .  S
C925        C930   1.505       .  S
C925        C926   1.399       .  A
C926        C927   1.419       .  A
C926        C931   1.455       .  S
C927        C928   1.450       .  A
C927        C943   1.450       .  S
C928        C929   1.454       .  A
C929        C932   1.448       .  S
C930        C933   1.412       .  A
C930        C937   1.413       .  A
C931        N948   1.157       .  T
C932        N950   1.157       .  T
C933        C934   1.412       .  A
C933        C938   1.450       .  S
C934        C935   1.416       .  A
C934        C940   1.452       .  S
C935        C936   1.415       .  A
C936        C937   1.414       .  A
C936        C939   1.450       .  S
C937        C941   1.450       .  S
C938        N945   1.157       .  T
C939        N946   1.157       .  T
C940        N944   1.157       .  T
C941        N947   1.157       .  T
C942        N951   1.157       .  T
C943        N949   1.157       .  T
C952        C953   1.407       .  A
C952        C957   1.408       .  A
C952        C970   1.451       .  S
C953        C958   1.493       .  S
C953        C954   1.408       .  A
C954        C955   1.410       .  A
C954        C959   1.452       .  S
C955        C956   1.425       .  A
C955        C971   1.452       .  S
C956        C957   1.422       .  A
C957        C960   1.450   1_655  S
C958        C961   1.409       .  A
C958        C965   1.410       .  A
C959        N976   1.157       .  T
C960        N978   1.158       .  T
C961        C962   1.410       .  A
C961        C966   1.452       .  S
C962        C963   1.417       .  A
C962        C968   1.452       .  S
C963        C964   1.415       .  A
C964        C965   1.409       .  A
C964        C967   1.451       .  S
C965        C969   1.451       .  S
C966        N973   1.157       .  T
C967        N974   1.157       .  T
C968        N972   1.157       .  T
C969        N975   1.157   1_655  T
C970        N979   1.157       .  T
C971        N977   1.158       .  T
C980        C981   1.404       .  A
C980        C985   1.410       .  A
C980        C998   1.453       .  S
C981        C986   1.489       .  S
C981        C982   1.403       .  A
C982        C983   1.409   1_455  A
C982        C987   1.452   1_455  S
C983        C984   1.427   1_655  A
C983        C999   1.451       .  S
C984        C985   1.426       .  A
C985        C988   1.448       .  S
C986        C989   1.408       .  A
C986        C993   1.408       .  A
C987       N1004   1.157       .  T
C988       N1006   1.158       .  T
C989        C990   1.410       .  A
C989        C994   1.451       .  S
C990        C991   1.417       .  A
C990        C996   1.451       .  S
C991        C992   1.417       .  A
C992        C993   1.407       .  A
C992        C995   1.452       .  S
C993        C997   1.452       .  S
C994       N1001   1.157   1_455  T
C995       N1002   1.157       .  T
C996       N1000   1.157       .  T
C997       N1003   1.157       .  T
C998       N1007   1.157       .  T
C999       N1005   1.157   1_545  T
C1008      C1009   1.411       .  A
C1008      C1013   1.412       .  A
C1008      C1026   1.451       .  S
C1009      C1014   1.501       .  S
C1009      C1010   1.411       .  A
C1010      C1011   1.413       .  A
C1010      C1015   1.451       .  S
C1011      C1012   1.417       .  A
C1011      C1027   1.451       .  S
C1012      C1013   1.417       .  A
C1013      C1016   1.451       .  S
C1014      C1017   1.411       .  A
C1014      C1021   1.410       .  A
C1015      N1032   1.157       .  T
C1016      N1034   1.157       .  T
C1017      C1018   1.413       .  A
C1017      C1022   1.451       .  S
C1018      C1019   1.418       .  A
C1018      C1024   1.451       .  S
C1019      C1020   1.418       .  A
C1020      C1021   1.411       .  A
C1020      C1023   1.452       .  S
C1021      C1025   1.451       .  S
C1022      N1029   1.157       .  T
C1023      N1030   1.157       .  T
C1024      N1028   1.158       .  T
C1025      N1031   1.157       .  T
C1026      N1035   1.157       .  T
C1027      N1033   1.157       .  T
C1036      C1037   1.412       .  A
C1036      C1041   1.412       .  A
C1036      C1054   1.451       .  S
C1037      C1042   1.500       .  S
C1037      C1038   1.413       .  A
C1038      C1039   1.410       .  A
C1038      C1043   1.452       .  S
C1039      C1040   1.416       .  A
C1039      C1055   1.452       .  S
C1040      C1041   1.415       .  A
C1041      C1044   1.451       .  S
C1042      C1045   1.409       .  A
C1042      C1049   1.409       .  A
C1043      N1060   1.157       .  T
C1044      N1062   1.157       .  T
C1045      C1046   1.409       .  A
C1045      C1050   1.452       .  S
C1046      C1047   1.422       .  A
C1046      C1052   1.451       .  S
C1047      C1048   1.422       .  A
C1048      C1049   1.413       .  A
C1048      C1051   1.448   1_565  S
C1049      C1053   1.451   1_565  S
C1050      N1057   1.157       .  T
C1051      N1058   1.157   1_655  T
C1052      N1056   1.157       .  T
C1053      N1059   1.157       .  T
C1054      N1063   1.157   1_565  T
C1055      N1061   1.157       .  T
C1064      C1065   1.412       .  A
C1064      C1069   1.415       .  A
C1064      C1082   1.450       .  S
C1065      C1070   1.510       .  S
C1065      C1066   1.412       .  A
C1066      C1067   1.415       .  A
C1066      C1071   1.451       .  S
C1067      C1068   1.419       .  A
C1067      C1083   1.451       .  S
C1068      C1069   1.420       .  A
C1069      C1072   1.451       .  S
C1070      C1073   1.399       .  A
C1070      C1077   1.401       .  A
C1071      N1088   1.157       .  T
C1072      N1090   1.158       .  T
C1073      C1074   1.420       .  A
C1073      C1078   1.455       .  S
C1074      C1075   1.450       .  A
C1074      C1080   1.449       .  S
C1075      C1076   1.452       .  A
C1076      C1077   1.422       .  A
C1076      C1079   1.447       .  S
C1077      C1081   1.456       .  S
C1078      N1085   1.157       .  T
C1079      N1086   1.157       .  T
C1080      N1084   1.157       .  T
C1081      N1087   1.157       .  T
C1082      N1091   1.157       .  T
C1083      N1089   1.157       .  T
C1092      C1093   1.409       .  A
C1092      C1097   1.410       .  A
C1092      C1110   1.452       .  S
C1093      C1098   1.496       .  S
C1093      C1094   1.409       .  A
C1094      C1095   1.412       .  A
C1094      C1099   1.451       .  S
C1095      C1096   1.418       .  A
C1095      C1111   1.451       .  S
C1096      C1097   1.418       .  A
C1097      C1100   1.450       .  S
C1098      C1101   1.411       .  A
C1098      C1105   1.409       .  A
C1099      N1116   1.157       .  T
C1100      N1118   1.157       .  T
C1101      C1102   1.412       .  A
C1101      C1106   1.451       .  S
C1102      C1103   1.417       .  A
C1102      C1108   1.451       .  S
C1103      C1104   1.416       .  A
C1104      C1105   1.409       .  A
C1104      C1107   1.451       .  S
C1105      C1109   1.451       .  S
C1106      N1113   1.157       .  T
C1107      N1114   1.157       .  T
C1108      N1112   1.158       .  T
C1109      N1115   1.157       .  T
C1110      N1119   1.157       .  T
C1111      N1117   1.157       .  T
C1120      C1121   1.411       .  A
C1120      C1125   1.410       .  A
C1120      C1138   1.450       .  S
C1121      C1126   1.497       .  S
C1121      C1122   1.412   1_545  A
C1122      C1123   1.411       .  A
C1122      C1127   1.450       .  S
C1123      C1124   1.411       .  A
C1123      C1139   1.451       .  S
C1124      C1125   1.412   1_565  A
C1125      C1128   1.452       .  S
C1126      C1129   1.410       .  A
C1126      C1133   1.409       .  A
C1127      N1144   1.157       .  T
C1128      N1146   1.157       .  T
C1129      C1130   1.413       .  A
C1129      C1134   1.451   1_545  S
C1130      C1131   1.418       .  A
C1130      C1136   1.450       .  S
C1131      C1132   1.418       .  A
C1132      C1133   1.411       .  A
C1132      C1135   1.451       .  S
C1133      C1137   1.451       .  S
C1134      N1141   1.157       .  T
C1135      N1142   1.157       .  T
C1136      N1140   1.157       .  T
C1137      N1143   1.157       .  T
C1138      N1147   1.157       .  T
C1139      N1145   1.157   1_455  T
C1148      C1149   1.410       .  A
C1148      C1153   1.414       .  A
C1148      C1166   1.451       .  S
C1149      C1154   1.504   1_545  S
C1149      C1150   1.410   1_545  A
C1150      C1151   1.415   1_565  A
C1150      C1155   1.451       .  S
C1151      C1152   1.422       .  A
C1151      C1167   1.451       .  S
C1152      C1153   1.420       .  A
C1153      C1156   1.451       .  S
C1154      C1157   1.411       .  A
C1154      C1161   1.411       .  A
C1155      N1172   1.157       .  T
C1156      N1174   1.157       .  T
C1157      C1158   1.413       .  A
C1157      C1162   1.450       .  S
C1158      C1159   1.417       .  A
C1158      C1164   1.451       .  S
C1159      C1160   1.418       .  A
C1160      C1161   1.414       .  A
C1160      C1163   1.451       .  S
C1161      C1165   1.450   1_565  S
C1162      N1169   1.157       .  T
C1163      N1170   1.158       .  T
C1164      N1168   1.157       .  T
C1165      N1171   1.157       .  T
C1166      N1175   1.157       .  T
C1167      N1173   1.157   1_545  T
C1176      C1177   1.402       .  A
C1176      C1181   1.420       .  A
C1176      C1194   1.455       .  S
C1177      C1182   1.508       .  S
C1177      C1178   1.400       .  A
C1178      C1179   1.419       .  A
C1178      C1183   1.456       .  S
C1179      C1180   1.451       .  A
C1179      C1195   1.448       .  S
C1180      C1181   1.449       .  A
C1181      C1184   1.450       .  S
C1182      C1185   1.415       .  A
C1182      C1189   1.411       .  A
C1183      N1200   1.157       .  T
C1184      N1202   1.157       .  T
C1185      C1186   1.413       .  A
C1185      C1190   1.451       .  S
C1186      C1187   1.417       .  A
C1186      C1192   1.452       .  S
C1187      C1188   1.419       .  A
C1188      C1189   1.414       .  A
C1188      C1191   1.449       .  S
C1189      C1193   1.452       .  S
C1190      N1197   1.157       .  T
C1191      N1198   1.157       .  T
C1192      N1196   1.157       .  T
C1193      N1199   1.157       .  T
C1194      N1203   1.157       .  T
C1195      N1201   1.157       .  T
