geometry optimzed in LAMMPS
_audit_creation_date              2020-11-30 
_audit_creation_method            'lammps2cif' 
_symmetry_space_group_name_H-M    'P1' 
_symmetry_Int_Tables_number       1 
_symmetry_cell_setting            triclinic 
loop_ 
_symmetry_equiv_pos_as_xyz 
  x,y,z 
_cell_length_a                    50.86663591 
_cell_length_b                    50.867712321139095 
_cell_length_c                    50.64175263076863 
_cell_angle_alpha                 90.00009565006945 
_cell_angle_beta                  89.99969916231211 
_cell_angle_gamma                 90.00038343830246 
loop_ 
_atom_site_label 
_atom_site_type_symbol 
_atom_site_fract_x 
_atom_site_fract_y 
_atom_site_fract_z 
_atom_site_charge 
O1          O  0.35351570  0.34735561  0.77869486    -0.73100
O2          O  0.35285198  0.40320298  0.72266725    -0.74100
O3          O  0.35284408  0.34681908  0.72265668    -0.62700
O4          O  0.35352128  0.40264396  0.77870537    -0.71100
O5          O  0.39717413  0.40318843  0.77735473    -0.70700
O6          O  0.39649699  0.34736070  0.72130890    -0.61900
O7          O  0.39650468  0.40264801  0.72131758    -0.74400
O8          O  0.39716852  0.34680542  0.77734612    -0.73200
Cu9        Cu  0.35164811  0.37500558  0.75063637     1.04600
Cu10       Cu  0.39837082  0.37500047  0.74937649     1.04300
C11         C  0.37547578  0.33830567  0.78680981     0.93100
C12         C  0.37454569  0.41170041  0.71320321     0.92200
C13         C  0.37453521  0.33831777  0.71319067     0.84400
C14         C  0.37548302  0.41168824  0.78682217     0.90600
O15         O  0.10352233  0.40264212  0.72130579    -0.73100
O16         O  0.10284395  0.34681490  0.77735359    -0.74100
O17         O  0.10285108  0.40319878  0.77734418    -0.62700
O18         O  0.10351374  0.34735355  0.72131521    -0.71100
O19         O  0.14716645  0.34680018  0.72266422    -0.70700
O20         O  0.14650382  0.40264554  0.77869253    -0.61900
O21         O  0.14649683  0.34735827  0.77870143    -0.74400
O22         O  0.14717518  0.40318340  0.72265515    -0.73200
Cu23       Cu  0.10164763  0.37500255  0.74937436     1.04600
Cu24       Cu  0.14837031  0.37499664  0.75063366     1.04300
C25         C  0.12548468  0.41168481  0.71318835     0.93100
C26         C  0.12453543  0.33831458  0.78681964     0.92200
C27         C  0.12454450  0.41169694  0.78680785     0.84400
C28         C  0.12547314  0.33830185  0.71320046     0.90600
O29         O  0.47236797  0.27149856  0.52870033    -0.73100
O30         O  0.02819566  0.27217055  0.47265358    -0.74100
O31         O  0.47181093  0.27216605  0.47266240    -0.62700
O32         O  0.02765701  0.27150193  0.52869199    -0.71100
O33         O  0.02820700  0.22785002  0.52734335    -0.70700
O34         O  0.47236228  0.22851411  0.47131549    -0.61900
O35         O  0.02765071  0.22851860  0.47130567    -0.74400
O36         O  0.47182336  0.22784658  0.52735250    -0.73200
Cu37       Cu  0.00000787  0.27336939  0.50063232     1.04600
Cu38       Cu  0.00001101  0.22664759  0.49937397     1.04300
C39         C  0.46332333  0.24953781  0.53681839     0.93100
C40         C  0.03669515  0.25047927  0.46318720     0.92200
C41         C  0.46331149  0.25047293  0.46319976     0.84400
C42         C  0.03670650  0.24954226  0.53680747     0.90600
N43         N  0.40866274  0.23840088  0.58168071    -0.27500
N44         N  0.41836761  0.26046091  0.59147740    -0.35300
C45         C  0.43913599  0.26790385  0.57684990     0.00900
C46         C  0.44295289  0.24934915  0.55729010     0.06900
C47         C  0.42338542  0.23086758  0.56094538    -0.06200
H48         H  0.45086883  0.28527297  0.58049408     0.07600
H49         H  0.41975729  0.21354214  0.54909608     0.08800
Cu50       Cu  0.40377612  0.27876713  0.62500828     0.44200
Cu51       Cu  0.37513447  0.22030859  0.59615624     0.42000
Cu52       Cu  0.34530903  0.25012978  0.65384839     0.43900
N53         N  0.38546306  0.29336025  0.65853477    -0.34900
N54         N  0.36339946  0.28365804  0.66832693    -0.29100
C55         C  0.35586284  0.29838250  0.68905982    -0.05200
C56         C  0.37434602  0.31794805  0.69271834     0.07000
C57         C  0.39290495  0.31412824  0.67316273     0.00800
H58         H  0.33853443  0.29475627  0.70090619     0.08500
H59         H  0.41027657  0.32585842  0.66952196     0.07500
N60         N  0.33120342  0.21636058  0.63588408    -0.36300
N61         N  0.34136430  0.20620139  0.61411740    -0.28500
C62         C  0.32686263  0.18536261  0.60670823    -0.03700
C63         C  0.30700328  0.18199954  0.62499938     0.04900
C64         C  0.31036460  0.20185780  0.64329147     0.03000
H65         H  0.33082508  0.17325576  0.58959701     0.08100
H66         H  0.29825697  0.20581805  0.66040312     0.06900
N67         N  0.09136859  0.23840517  0.58166829    -0.27500
N68         N  0.08166250  0.26046390  0.59146660    -0.35300
C69         C  0.06089563  0.26790816  0.57683795     0.00900
C70         C  0.05708058  0.24935570  0.55727562     0.06900
C71         C  0.07664789  0.23087401  0.56093075    -0.06200
H72         H  0.04916062  0.28527516  0.58048504     0.07600
H73         H  0.08027555  0.21354834  0.54908161     0.08800
Cu74       Cu  0.09624468  0.27876243  0.62500606     0.44200
Cu75       Cu  0.12489263  0.22030874  0.59614875     0.42000
Cu76       Cu  0.15469206  0.25010547  0.65386677     0.43900
N77         N  0.11454468  0.29334320  0.65854540    -0.34900
N78         N  0.13660126  0.28363340  0.66834553    -0.29100
C79         C  0.14413517  0.29835471  0.68908160    -0.05200
C80         C  0.12565736  0.31792637  0.69273386     0.07000
C81         C  0.10710433  0.31411296  0.67317149     0.00800
H82         H  0.16145991  0.29472448  0.70093173     0.08500
H83         H  0.08973966  0.32585123  0.66952240     0.07500
N84         N  0.16880705  0.21634516  0.63589313    -0.36300
N85         N  0.15865595  0.20619499  0.61411765    -0.28500
C86         C  0.17316247  0.18536104  0.60670465    -0.03700
C87         C  0.19301510  0.18199184  0.62500178     0.04900
C88         C  0.18964444  0.20184142  0.64330173     0.03000
H89         H  0.16920822  0.17326189  0.58958597     0.08100
H90         H  0.20174505  0.20579558  0.66041972     0.06900
O91         O  0.02766144  0.02150539  0.47132028    -0.73100
O92         O  0.47181696  0.02216348  0.52735022    -0.74100
O93         O  0.02820082  0.02217027  0.52735791    -0.62700
O94         O  0.47237190  0.02149793  0.47131185    -0.71100
O95         O  0.47182860  0.47784584  0.47266023    -0.70700
O96         O  0.02765974  0.47851743  0.52870107    -0.61900
O97         O  0.47237192  0.47851165  0.52869795    -0.74400
O98         O  0.02821298  0.47785322  0.47266429    -0.73200
Cu99       Cu  0.00001254  0.02336936  0.49937978     1.04600
Cu100      Cu  0.00001842  0.47664724  0.50063594     1.04300
C101        C  0.03671202  0.99954688  0.46320306     0.93100
C102        C  0.46332136  0.50047027  0.53681482     0.92200
C103        C  0.03670348  0.50047771  0.53682098     0.84400
C104        C  0.46332749  0.99953689  0.46319410     0.90600
N105        N  0.13662860  0.46634101  0.66832257    -0.27500
N106        N  0.11456915  0.45663546  0.65852448    -0.35300
C107        C  0.10712371  0.43586926  0.67315319     0.00900
C108        C  0.12567621  0.43205388  0.69271551     0.06900
C109        C  0.14415924  0.45162038  0.68906026    -0.06200
H110        H  0.08975441  0.42413665  0.66950783     0.07600
H111        H  0.16148356  0.45524933  0.70091127     0.08800
Cu112      Cu  0.09626521  0.47122443  0.62499152     0.44200
Cu113      Cu  0.15472138  0.49986897  0.65384541     0.42000
Cu114      Cu  0.12489351  0.02969816  0.59615820     0.43900
N115        N  0.08166706  0.48954147  0.59146982    -0.34900
N116        N  0.09136534  0.01160828  0.58168150    -0.29100
C117        C  0.07663793  0.01914827  0.56095219    -0.05200
C118        C  0.05707449  0.50066393  0.55729172     0.07000
C119        C  0.06089768  0.48210139  0.57684274     0.00800
H120        H  0.08026181  0.03647891  0.54910927     0.08500
H121        H  0.04916882  0.46472833  0.58048118     0.07500
N122        N  0.15866276  0.04380330  0.61412081    -0.36300
N123        N  0.16882461  0.03364171  0.63588568    -0.28500
C124        C  0.18966306  0.04814461  0.64329413    -0.03700
C125        C  0.19302277  0.06800521  0.62500417     0.04900
C126        C  0.17316305  0.06464359  0.60671365     0.03000
H127        H  0.20177187  0.04418226  0.66040394     0.08100
H128        H  0.16919985  0.07675177  0.58960375     0.06900
N129        N  0.40865331  0.01159552  0.58167164    -0.27500
N130        N  0.41836667  0.48954158  0.59147394    -0.35300
C131        C  0.43913733  0.48210234  0.57684773     0.00900
C132        C  0.44294827  0.50065421  0.55728386     0.06900
C133        C  0.42337341  0.01912938  0.56093467    -0.06200
H134        H  0.45087673  0.46473885  0.58049662     0.07600
H135        H  0.41974096  0.03645248  0.54908338     0.08800
Cu136      Cu  0.40378498  0.47124157  0.62501352     0.44200
Cu137      Cu  0.37512421  0.02968539  0.59614704     0.42000
Cu138      Cu  0.34534468  0.49991037  0.65388388     0.43900
N139        N  0.38548135  0.45666133  0.65855181    -0.34900
N140        N  0.36342833  0.46637618  0.66835540    -0.29100
C141        C  0.35589135  0.45165391  0.68908967    -0.05200
C142        C  0.37436326  0.43207611  0.69273709     0.07000
C143        C  0.39291625  0.43588697  0.67317396     0.00800
H144        H  0.33856887  0.45528786  0.70094235     0.08500
H145        H  0.41027763  0.42414471  0.66952249     0.07500
N146        N  0.33122395  0.03366473  0.63590449    -0.36300
N147        N  0.34136670  0.04380552  0.61412075    -0.28500
C148        C  0.32685737  0.06463612  0.60670420    -0.03700
C149        C  0.30701144  0.06801306  0.62500739     0.04900
C150        C  0.31038909  0.04817142  0.64331481     0.03000
H151        H  0.33080519  0.07672779  0.58957874     0.08100
H152        H  0.29829463  0.04422422  0.66043878     0.06900
O153        O  0.22182827  0.27217105  0.02735355    -0.73100
O154        O  0.27765910  0.27149629  0.97130970    -0.74100
O155        O  0.22236999  0.27150411  0.97131552    -0.62700
O156        O  0.27821293  0.27216156  0.02734754    -0.71100
O157        O  0.27765753  0.22850965  0.02869346    -0.70700
O158        O  0.22181724  0.22785217  0.97266221    -0.61900
O159        O  0.27820068  0.22784429  0.97265655    -0.74400
O160        O  0.22236938  0.22851890  0.02869905    -0.73200
Cu161      Cu  0.25001784  0.27336840  0.99937638     1.04600
Cu162      Cu  0.25001093  0.22664652  0.00063302     1.04300
C163        C  0.21332612  0.25047985  0.03681789     0.93100
C164        C  0.28670263  0.24953523  0.96319157     0.92200
C165        C  0.21331913  0.24954523  0.96319920     0.84400
C166        C  0.28670965  0.25046759  0.03681026     0.90600
N167        N  0.38661187  0.28364235  0.83166863    -0.27500
N168        N  0.36454916  0.29334435  0.84146264    -0.35300
C169        C  0.35710517  0.31411131  0.82683451     0.00900
C170        C  0.37566202  0.31793077  0.80727683     0.06900
C171        C  0.39414608  0.29836596  0.81093422    -0.06200
H172        H  0.33973522  0.32584280  0.83047841     0.07600
H173        H  0.41147506  0.29474171  0.79908837     0.08800
Cu174      Cu  0.34624401  0.27875608  0.87499539     0.44200
Cu175      Cu  0.40470753  0.25011907  0.84615145     0.42000
Cu176      Cu  0.37489126  0.22030425  0.90385376     0.43900
N177        N  0.33165714  0.26045488  0.90853094    -0.34900
N178        N  0.34136321  0.23839643  0.91832965    -0.29100
C179        C  0.32664146  0.23086474  0.93906632    -0.05200
C180        C  0.30707359  0.24934597  0.94272042     0.07000
C181        C  0.31088930  0.26789873  0.92315855     0.00800
H182        H  0.33027017  0.21354045  0.95091706     0.08500
H183        H  0.29915535  0.28526659  0.91951224     0.07500
N184        N  0.40866053  0.20619814  0.88589029    -0.36300
N185        N  0.41881816  0.21635494  0.86412088    -0.28500
C186        C  0.43965708  0.20185272  0.85671328    -0.03700
C187        C  0.44302170  0.18199731  0.87500780     0.04900
C188        C  0.42316427  0.18536151  0.89330065     0.03000
H189        H  0.45176215  0.20581125  0.83959947     0.08100
H190        H  0.41920443  0.17325668  0.91041407     0.06900
N191        N  0.15865480  0.23841166  0.91834111    -0.27500
N192        N  0.16836049  0.26047118  0.90854392    -0.35300
C193        C  0.18912862  0.26791432  0.92317151     0.00900
C194        C  0.19294458  0.24936014  0.94273189     0.06900
C195        C  0.17337686  0.23087882  0.93907677    -0.06200
H196        H  0.20086314  0.28528179  0.91952545     0.07600
H197        H  0.16974938  0.21355238  0.95092526     0.08800
Cu198      Cu  0.15377469  0.27877400  0.87500891     0.44200
Cu199      Cu  0.12513004  0.22031555  0.90386205     0.42000
Cu200      Cu  0.09531908  0.25012180  0.84615787     0.43900
N201        N  0.13546521  0.29336071  0.84147775    -0.34900
N202        N  0.11340566  0.28365298  0.83168197    -0.29100
C203        C  0.10586884  0.29837519  0.81094778    -0.05200
C204        C  0.12434764  0.31794532  0.80729222     0.07000
C205        C  0.14290440  0.31413022  0.82685072     0.00800
H206        H  0.08854311  0.29474447  0.79909888     0.08500
H207        H  0.16027246  0.32586507  0.83049448     0.07500
N208        N  0.08121069  0.21635478  0.86412379    -0.36300
N209        N  0.09136609  0.20620089  0.88589532    -0.28500
C210        C  0.07686317  0.18536331  0.89330542    -0.03700
C211        C  0.05700853  0.18199556  0.87501028     0.04900
C212        C  0.06037412  0.20184981  0.85671447     0.03000
H213        H  0.08082107  0.17326092  0.91042102     0.08100
H214        H  0.04827039  0.20580645  0.83959960     0.06900
O215        O  0.35284888  0.09680139  0.27735060    -0.73100
O216        O  0.35350887  0.15264416  0.22131894    -0.74100
O217        O  0.35351634  0.09735597  0.22131268    -0.62700
O218        O  0.35284002  0.15318479  0.27735758    -0.71100
O219        O  0.39649281  0.15264194  0.27870647    -0.70700
O220        O  0.39716922  0.09681564  0.22265860    -0.61900
O221        O  0.39716158  0.15319884  0.22266849    -0.74400
O222        O  0.39650172  0.09735483  0.27869583    -0.73200
Cu223      Cu  0.35164343  0.12499641  0.24937965     1.04600
Cu224      Cu  0.39836614  0.12500315  0.25063754     1.04300
C225        C  0.37454301  0.08830357  0.28681277     0.93100
C226        C  0.37546836  0.16169599  0.21320403     0.92200
C227        C  0.37547794  0.08831328  0.21319385     0.84400
C228        C  0.37453114  0.16168518  0.28682452     0.90600
O229        O  0.27820678  0.02216250  0.97266208    -0.73100
O230        O  0.22236468  0.02149922  0.02869354    -0.74100
O231        O  0.27765387  0.02149438  0.02869983    -0.62700
O232        O  0.22182301  0.02216527  0.97265577    -0.71100
O233        O  0.22236987  0.47851294  0.97130791    -0.70700
O234        O  0.27819670  0.47784272  0.02735396    -0.61900
O235        O  0.22181245  0.47784703  0.02734535    -0.74400
O236        O  0.27765801  0.47851074  0.97131684    -0.73200
Cu237      Cu  0.25001218  0.02336538  0.00063316     1.04600
Cu238      Cu  0.25000918  0.47664351  0.99937583     1.04300
C239        C  0.28670670  0.00046976  0.96319969     0.93100
C240        C  0.21331324  0.99954021  0.03680856     0.92200
C241        C  0.28669763  0.99953358  0.03681859     0.84400
C242        C  0.21332406  0.50047301  0.96319010     0.90600
N243        N  0.11341995  0.46636645  0.83166243    -0.27500
N244        N  0.13547925  0.45665903  0.84145883    -0.35300
C245        C  0.14291763  0.43588827  0.82683320     0.00900
C246        C  0.12436092  0.43207199  0.80727493     0.06900
C247        C  0.10588267  0.45164281  0.81092916    -0.06200
H248        H  0.16028437  0.42415201  0.83047897     0.07600
H249        H  0.08855574  0.45527116  0.79908177     0.08800
Cu250      Cu  0.15378710  0.47124548  0.87499170     0.44200
Cu251      Cu  0.09533054  0.49989493  0.84614129     0.42000
Cu252      Cu  0.12512618  0.02968803  0.90386125     0.43900
N253        N  0.16837142  0.48954728  0.90852898    -0.34900
N254        N  0.15865975  0.01160200  0.91833080    -0.29100
C255        C  0.17338051  0.01913577  0.93906721    -0.05200
C256        C  0.19295374  0.50065964  0.94271844     0.07000
C257        C  0.18914253  0.48210808  0.92315430     0.00800
H258        H  0.16974668  0.03645711  0.95092091     0.08500
H259        H  0.20088121  0.46474391  0.91950552     0.07500
N260        N  0.09136231  0.04380125  0.88589420    -0.36300
N261        N  0.08121359  0.03365371  0.86411654    -0.28500
C262        C  0.06037757  0.04815898  0.85670660    -0.03700
C263        C  0.05700558  0.06800691  0.87500815     0.04900
C264        C  0.07685563  0.06463493  0.89330761     0.03000
H265        H  0.04827957  0.04420747  0.83958658     0.08100
H266        H  0.08080879  0.07673284  0.91042721     0.06900
N267        N  0.38661823  0.46635075  0.83168214    -0.27500
N268        N  0.36456403  0.45663863  0.84148597    -0.35300
C269        C  0.35712274  0.43586879  0.82686040     0.00900
C270        C  0.37567256  0.43205795  0.80729439     0.06900
C271        C  0.39414956  0.45163095  0.81094408    -0.06200
H272        H  0.33975780  0.42413066  0.83051017     0.07600
H273        H  0.41147037  0.45526480  0.79908909     0.08800
Cu274      Cu  0.34626327  0.47122281  0.87502328     0.44200
Cu275      Cu  0.40470536  0.49988430  0.84615294     0.42000
Cu276      Cu  0.37489246  0.02969748  0.90385486     0.43900
N277        N  0.33167075  0.48953558  0.90855006    -0.34900
N278        N  0.34136987  0.01160168  0.91833881    -0.29100
C279        C  0.32664421  0.01913955  0.93907038    -0.05200
C280        C  0.30708075  0.50065500  0.94273145     0.07000
C281        C  0.31090311  0.48209371  0.92317900     0.00800
H282        H  0.33026670  0.03647141  0.95091223     0.08500
H283        H  0.29917345  0.46472159  0.91953954     0.07500
N284        N  0.40865700  0.04380857  0.88588665    -0.36300
N285        N  0.41881340  0.03365269  0.86411636    -0.28500
C286        C  0.43965132  0.04815623  0.85670751    -0.03700
C287        C  0.44301650  0.06801145  0.87500251     0.04900
C288        C  0.42316034  0.06464582  0.89329650     0.03000
H289        H  0.45175653  0.04419752  0.83959399     0.08100
H290        H  0.41920191  0.07674909  0.91041121     0.06900
O291        O  0.14650251  0.09735892  0.22131300    -0.73100
O292        O  0.14716330  0.15320441  0.27734119    -0.74100
O293        O  0.14717141  0.09682127  0.27735072    -0.62700
O294        O  0.14649616  0.15264614  0.22130399    -0.71100
O295        O  0.10284326  0.15318876  0.22265101    -0.70700
O296        O  0.10351859  0.09736283  0.27869923    -0.61900
O297        O  0.10351045  0.15265063  0.27868867    -0.74400
O298        O  0.10284982  0.09680557  0.22266106    -0.73200
Cu299      Cu  0.14836822  0.12500783  0.24937201     1.04600
Cu300      Cu  0.10164548  0.12500162  0.25063030     1.04300
C301        C  0.12454323  0.08830780  0.21319726     0.93100
C302        C  0.12546949  0.16170278  0.28680380     0.92200
C303        C  0.12548046  0.08832034  0.28681743     0.84400
C304        C  0.12453496  0.16168936  0.21318533     0.85800
N305        N  0.15864216  0.48841402  0.08166086    -0.27500
N306        N  0.16835551  0.01046688  0.09146504    -0.35300
C307        C  0.18912754  0.01790599  0.07684072     0.00900
C308        C  0.19293775  0.99935581  0.05727524     0.06900
C309        C  0.17336301  0.48088097  0.06092403    -0.06200
H310        H  0.20086889  0.03526751  0.08049259     0.07600
H311        H  0.16972981  0.46355953  0.04907059     0.08800
Cu312      Cu  0.15377696  0.02876484  0.12500660     0.44200
Cu313      Cu  0.12511032  0.47032615  0.09613376     0.42000
Cu314      Cu  0.09532560  0.00011245  0.15386310     0.43900
N315        N  0.13547422  0.04334884  0.15854314    -0.34900
N316        N  0.11341572  0.03364069  0.16834119    -0.29100
C317        C  0.10588026  0.04836303  0.18907581    -0.05200
C318        C  0.12435915  0.06793337  0.19272976     0.07000
C319        C  0.14291425  0.06411860  0.17316940     0.00800
H320        H  0.08855408  0.04473366  0.20092481     0.08500
H321        H  0.16028071  0.07585527  0.16952245     0.07500
N322        N  0.08120717  0.46635374  0.13588984    -0.36300
N323        N  0.09135198  0.45620863  0.11410902    -0.28500
C324        C  0.07684569  0.43537393  0.10669781    -0.03700
C325        C  0.05700008  0.43199872  0.12500174     0.04900
C326        C  0.06037426  0.45184582  0.14330378     0.03000
H327        H  0.08079592  0.42327788  0.08957586     0.08100
H328        H  0.04827915  0.45579532  0.16042673     0.06900
N329        N  0.34135480  0.48839307  0.08168521    -0.27500
N330        N  0.33165347  0.01045619  0.09147756    -0.35300
C331        C  0.31088804  0.01790130  0.07684742     0.00900
C332        C  0.30706845  0.99934460  0.05729002     0.06900
C333        C  0.32663220  0.48085999  0.06094963    -0.06200
H334        H  0.29915825  0.03527305  0.08048898     0.07600
H335        H  0.33025725  0.46353199  0.04910350     0.08800
Cu336      Cu  0.34624390  0.02876376  0.12500806     0.44200
Cu337      Cu  0.37487819  0.47029596  0.09616685     0.42000
Cu338      Cu  0.40470904  0.00012723  0.15385091     0.43900
N339        N  0.36455290  0.04335553  0.15853729    -0.34900
N340        N  0.38661592  0.03365357  0.16833050    -0.29100
C341        C  0.39415072  0.04837737  0.18906452    -0.05200
C342        C  0.37566707  0.06794243  0.19272249     0.07000
C343        C  0.35710950  0.06412272  0.17316563     0.00800
H344        H  0.41147863  0.04475152  0.20091148     0.08500
H345        H  0.33973851  0.07585310  0.16952353     0.07500
N346        N  0.41881307  0.46635459  0.13589121    -0.36300
N347        N  0.40864916  0.45619066  0.11412826    -0.28500
C348        C  0.42315007  0.43535075  0.10672115    -0.03700
C349        C  0.44301247  0.43199208  0.12500956     0.04900
C350        C  0.43965353  0.45185411  0.14329815     0.03000
H351        H  0.41918594  0.42324113  0.08961237     0.08100
H352        H  0.45176390  0.45581886  0.16040646     0.06900
N353        N  0.38660019  0.21636092  0.16834631    -0.27500
N354        N  0.36454683  0.20664755  0.15854188    -0.35300
C355        C  0.35710494  0.18587870  0.17316871     0.00900
C356        C  0.37565376  0.18206994  0.19273606     0.06900
C357        C  0.39413056  0.20164292  0.18908581    -0.06200
H358        H  0.33974230  0.17413828  0.16951719     0.07600
H359        H  0.41145251  0.20527612  0.20093967     0.08800
Cu360      Cu  0.34625210  0.22122349  0.12499749     0.44200
Cu361      Cu  0.40469208  0.24988935  0.15386982     0.42000
Cu362      Cu  0.37491270  0.27967170  0.09613821     0.43900
N363        N  0.33167054  0.23952846  0.09146122    -0.34900
N364        N  0.34138190  0.26158492  0.08166272    -0.29100
C365        C  0.32665909  0.26912324  0.06092950    -0.05200
C366        C  0.30708459  0.25064872  0.05727725     0.07000
C367        C  0.31089774  0.23209273  0.07683655     0.00800
H368        H  0.33029048  0.28644852  0.04908084     0.08500
H369        H  0.29915783  0.21472896  0.08048387     0.07500
N370        N  0.40866747  0.29379283  0.11411628    -0.36300
N371        N  0.41881084  0.28364918  0.13589817    -0.28500
C372        C  0.43964262  0.29815845  0.14331306    -0.03700
C373        C  0.44301749  0.31800487  0.12501028     0.04900
C374        C  0.42317326  0.31462796  0.10670521     0.03000
H375        H  0.45173711  0.29420955  0.16043647     0.08100
H376        H  0.41922436  0.32672221  0.08958223     0.06900
N377        N  0.15866356  0.26161306  0.08167940    -0.27500
N378        N  0.16836826  0.23955223  0.09147424    -0.35300
C379        C  0.18913744  0.23211141  0.07684711     0.00900
C380        C  0.19295529  0.25066795  0.05728932     0.06900
C381        C  0.17338734  0.26914876  0.06094560    -0.06200
H382        H  0.20086994  0.21474167  0.08048997     0.07600
H383        H  0.16975926  0.28647511  0.04909755     0.08800
Cu384      Cu  0.15377636  0.22124137  0.12500281     0.44200
Cu385      Cu  0.12513418  0.27970268  0.09615576     0.42000
Cu386      Cu  0.09531895  0.24988586  0.15385484     0.43900
N387        N  0.13546523  0.20664767  0.15853058    -0.34900
N388        N  0.11340539  0.21635378  0.16832720    -0.29100
C389        C  0.10586839  0.20162929  0.18905979    -0.05200
C390        C  0.12434733  0.18205935  0.19271362     0.07000
C391        C  0.14290435  0.18587682  0.17315563     0.00800
H392        H  0.08854271  0.20525850  0.20090914     0.08500
H393        H  0.16027318  0.17414328  0.16951147     0.07500
N394        N  0.08120992  0.28365305  0.13589092    -0.36300
N395        N  0.09136639  0.29381004  0.11412119    -0.28500
C396        C  0.07686247  0.31464698  0.10671200    -0.03700
C397        C  0.05700607  0.31801104  0.12500609     0.04900
C398        C  0.06037147  0.29815525  0.14330013     0.03000
H399        H  0.08082106  0.32675149  0.08959822     0.08100
H400        H  0.04826672  0.29419591  0.16041374     0.06900
N401        N  0.09138022  0.48841962  0.41834631    -0.27500
N402        N  0.08167581  0.01048109  0.40855300    -0.35300
C403        C  0.06090684  0.01792184  0.42318053     0.00900
C404        C  0.05708781  0.99936369  0.44273657     0.06900
C405        C  0.07665581  0.48088273  0.43907908    -0.06200
H406        H  0.04917313  0.03529045  0.41953686     0.07600
H407        H  0.08028135  0.46355347  0.45092398     0.08800
Cu408      Cu  0.09626331  0.02878814  0.37502086     0.44200
Cu409      Cu  0.12490437  0.47032538  0.40386406     0.42000
Cu410      Cu  0.15471377  0.00013671  0.34615977     0.43900
N411        N  0.11456381  0.04337216  0.34148342    -0.34900
N412        N  0.13662170  0.03366464  0.33168366    -0.29100
C413        C  0.14415234  0.04838403  0.31094508    -0.05200
C414        C  0.12567091  0.06795168  0.30729060     0.07000
C415        C  0.10711929  0.06413838  0.32685452     0.00800
H416        H  0.16147599  0.04475358  0.29909303     0.08500
H417        H  0.08975152  0.07587287  0.33050105     0.07500
N418        N  0.16882130  0.46636716  0.36412154    -0.36300
N419        N  0.15866570  0.45621120  0.38589221    -0.28500
C420        C  0.17316640  0.43537119  0.39329852    -0.03700
C421        C  0.19301987  0.43200402  0.37500183     0.04900
C422        C  0.18965595  0.45186117  0.35670901     0.03000
H423        H  0.16920813  0.42326728  0.41041297     0.08100
H424        H  0.20175961  0.45581925  0.33959412     0.06900
N425        N  0.40866714  0.48839666  0.41833270    -0.27500
N426        N  0.41837758  0.01045163  0.40852869    -0.35300
C427        C  0.43914571  0.01789570  0.42315592     0.00900
C428        C  0.44295689  0.99934713  0.44272256     0.06900
C429        C  0.42338600  0.48086797  0.43907238    -0.06200
H430        H  0.45088284  0.03526078  0.41950619     0.07600
H431        H  0.41975352  0.46354683  0.45092696     0.08800
Cu432      Cu  0.40379604  0.02874942  0.37498862     0.44200
Cu433      Cu  0.37513747  0.47030377  0.40385871     0.42000
Cu434      Cu  0.34533449  0.00010626  0.34614703     0.43900
N435        N  0.38548477  0.04333903  0.34145955    -0.34900
N436        N  0.36342263  0.03363402  0.33166718    -0.29100
C437        C  0.35588219  0.04835920  0.31093651    -0.05200
C438        C  0.37436122  0.06792868  0.30727958     0.07000
C439        C  0.39292198  0.06411008  0.32683364     0.00800
H440        H  0.33855257  0.04473235  0.29909220     0.08500
H441        H  0.41029037  0.07584457  0.33047620     0.07500
N442        N  0.33121876  0.46634622  0.36411848    -0.36300
N443        N  0.34137008  0.45619384  0.38589266    -0.28500
C444        C  0.32686208  0.43536016  0.39330434    -0.03700
C445        C  0.30700858  0.43199376  0.37500730     0.04900
C446        C  0.31038006  0.45184464  0.35670920     0.03000
H447        H  0.33081636  0.42325885  0.41042130     0.08100
H448        H  0.29827959  0.45580082  0.33959158     0.06900
N449        N  0.40863693  0.26159346  0.41835009    -0.27500
N450        N  0.41834385  0.23953403  0.40855406    -0.35300
C451        C  0.43911705  0.23209760  0.42317754     0.00900
C452        C  0.44293520  0.25065584  0.44273382     0.06900
C453        C  0.42336311  0.26913272  0.43908080    -0.06200
H454        H  0.45085297  0.21473099  0.41953213     0.07600
H455        H  0.41973528  0.28646007  0.45092777     0.08800
Cu456      Cu  0.40375426  0.22122230  0.37502455     0.44200
Cu457      Cu  0.37510639  0.27968128  0.40387458     0.42000
Cu458      Cu  0.34531236  0.24988157  0.34615586     0.43900
N459        N  0.38545196  0.20663557  0.34148850    -0.34900
N460        N  0.36339738  0.21634715  0.33168559    -0.29100
C461        C  0.35586487  0.20162676  0.31094837    -0.05200
C462        C  0.37434166  0.18205405  0.30729782     0.07000
C463        C  0.39289255  0.18586533  0.32686289     0.00800
H464        H  0.33854366  0.20526044  0.29909391     0.08500
H465        H  0.41025765  0.17412793  0.33051139     0.07500
N466        N  0.33120087  0.28364798  0.36412042    -0.36300
N467        N  0.34134888  0.29379784  0.38589745    -0.28500
C468        C  0.32684520  0.31463548  0.39330501    -0.03700
C469        C  0.30699779  0.31800759  0.37500266     0.04900
C470        C  0.31036838  0.29815569  0.35670517     0.03000
H471        H  0.33079772  0.32673487  0.41042392     0.08100
H472        H  0.29827035  0.29420199  0.33958540     0.06900
N473        N  0.13659223  0.21637674  0.33165252    -0.27500
N474        N  0.11453569  0.20666666  0.34145302    -0.35300
C475        C  0.10709778  0.18589395  0.32682984     0.00900
C476        C  0.12565248  0.18207922  0.30726918     0.06900
C477        C  0.14412856  0.20165293  0.31091919    -0.06200
H478        H  0.08973334  0.17415537  0.33047917     0.07600
H479        H  0.16145335  0.20528305  0.29906888     0.08800
Cu480      Cu  0.09623100  0.22125197  0.37498798     0.44200
Cu481      Cu  0.15468038  0.24990770  0.34612645     0.42000
Cu482      Cu  0.12488019  0.27970682  0.40384145     0.43900
N483        N  0.08164596  0.23955588  0.40852361    -0.34900
N484        N  0.09135287  0.26161507  0.41832026    -0.29100
C485        C  0.07663242  0.26914833  0.43905721    -0.05200
C486        C  0.05706447  0.25066758  0.44271409     0.07000
C487        C  0.06087869  0.23211330  0.42315308     0.00800
H488        H  0.08026229  0.28647376  0.45090660     0.08500
H489        H  0.04914464  0.21474519  0.41950913     0.07500
N490        N  0.15864513  0.29381856  0.38587379    -0.36300
N491        N  0.16879615  0.28366815  0.36409845    -0.28500
C492        C  0.18963492  0.29817071  0.35669023    -0.03700
C493        C  0.19300629  0.31801980  0.37499071     0.04900
C494        C  0.17315291  0.31465141  0.39328738     0.03000
H495        H  0.20173584  0.29421579  0.33957304     0.08100
H496        H  0.16919909  0.32675037  0.41040648     0.06900
O497        O  0.02770881  0.40307650  0.14694224    -0.73100
O498        O  0.47231179  0.34692732  0.14694714    -0.74100
O499        O  0.02770959  0.34692883  0.14694414    -0.62700
O500        O  0.47231127  0.40307534  0.14694602    -0.71100
O501        O  0.47193140  0.40269672  0.10307044    -0.70700
O502        O  0.02808500  0.34730498  0.10306856    -0.61900
O503        O  0.47193651  0.34730015  0.10307157    -0.74400
O504        O  0.02808015  0.40270158  0.10306663    -0.73200
Cu505      Cu  0.00001046  0.37500201  0.14848697     1.04600
Cu506      Cu  0.00000820  0.37500075  0.10152720     1.04300
C507        C  0.03664684  0.41164255  0.12500364     0.93100
C508        C  0.46337158  0.33836039  0.12500983     0.92200
C509        C  0.03665052  0.33836445  0.12500619     0.84400
C510        C  0.46336807  0.41163849  0.12500860     0.90600
O511        O  0.27808427  0.40269986  0.39694241    -0.73100
O512        O  0.22192914  0.34730870  0.39693333    -0.74100
O513        O  0.27807783  0.34730342  0.39693840    -0.62700
O514        O  0.22193548  0.40270473  0.39693812    -0.71100
O515        O  0.22231427  0.40308409  0.35306264    -0.70700
O516        O  0.27770641  0.34693037  0.35306278    -0.61900
O517        O  0.22230819  0.34693660  0.35305777    -0.74400
O518        O  0.27771191  0.40307801  0.35306687    -0.73200
Cu519      Cu  0.25000654  0.37500399  0.39848015     1.04600
Cu520      Cu  0.25001037  0.37500732  0.35152039     1.04300
C521        C  0.28665196  0.41164093  0.37500573     0.93100
C522        C  0.21336445  0.33837103  0.37499411     0.92200
C523        C  0.28664430  0.33836332  0.37500095     0.84400
C524        C  0.21337278  0.41164798  0.37500062     0.90600
O525        O  0.27771433  0.09693296  0.64694156    -0.73100
O526        O  0.22231174  0.15307376  0.64693853    -0.74100
O527        O  0.22231717  0.09692641  0.64694106    -0.62700
O528        O  0.27770874  0.15307989  0.64693784    -0.71100
O529        O  0.27808654  0.15270053  0.60306229    -0.70700
O530        O  0.22193990  0.09730186  0.60306545    -0.61900
O531        O  0.22193718  0.15269854  0.60306297    -0.74400
O532        O  0.27808880  0.09730345  0.60306592    -0.73200
Cu533      Cu  0.25001301  0.12500332  0.64848165     1.04600
Cu534      Cu  0.25001312  0.12500098  0.60152184     1.04300
C535        C  0.28665519  0.08836607  0.62500462     0.93100
C536        C  0.21337087  0.16163835  0.62500080     0.92200
C537        C  0.21337626  0.08836074  0.62500364     0.84400
C538        C  0.28664998  0.16164362  0.62499973     0.90600
O539        O  0.47193955  0.15270101  0.89694594    -0.73100
O540        O  0.02808565  0.09730207  0.89694635    -0.74100
O541        O  0.02808855  0.15269929  0.89694773    -0.62700
O542        O  0.47193665  0.09730446  0.89694339    -0.71100
O543        O  0.47231500  0.09693026  0.85306785    -0.70700
O544        O  0.02771388  0.15307607  0.85307217    -0.61900
O545        O  0.02771240  0.09692868  0.85307077    -0.74400
O546        O  0.47231700  0.15307768  0.85307036    -0.73200
Cu547      Cu  0.00001256  0.12500165  0.89848810     1.04600
Cu548      Cu  0.00001466  0.12500318  0.85152833     1.04300
C549        C  0.46337576  0.16164245  0.87500807     0.93100
C550        C  0.03665156  0.08836214  0.87500852     0.92200
C551        C  0.03665421  0.16164051  0.87501024     0.84400
C552        C  0.46337242  0.08836493  0.87500472     0.90600
O553        O  0.35351533  0.84735506  0.77869537    -0.73100
O554        O  0.35285143  0.90320262  0.72266774    -0.74100
O555        O  0.35284370  0.84681861  0.72265720    -0.62700
O556        O  0.35352069  0.90264339  0.77870601    -0.71100
O557        O  0.39717355  0.90318796  0.77735527    -0.70700
O558        O  0.39649664  0.84736046  0.72130958    -0.61900
O559        O  0.39650410  0.90264775  0.72131803    -0.74400
O560        O  0.39716818  0.84680501  0.77734667    -0.73200
Cu561      Cu  0.35164762  0.87500506  0.75063691     1.04600
Cu562      Cu  0.39837034  0.87500006  0.74937706     1.04300
C563        C  0.37547547  0.83830518  0.78681030     0.93100
C564        C  0.37454513  0.91170016  0.71320368     0.92200
C565        C  0.37453491  0.83831753  0.71319119     0.84400
C566        C  0.37548243  0.91168787  0.78682260     0.90600
O567        O  0.10352198  0.90264209  0.72130537    -0.73100
O568        O  0.10284388  0.84681507  0.77735318    -0.74100
O569        O  0.10285085  0.90319890  0.77734380    -0.62700
O570        O  0.10351353  0.84735359  0.72131491    -0.71100
O571        O  0.14716625  0.84680026  0.72266377    -0.70700
O572        O  0.14650357  0.90264571  0.77869203    -0.61900
O573        O  0.14649679  0.84735834  0.77870101    -0.74400
O574        O  0.14717484  0.90318344  0.72265457    -0.73200
Cu575      Cu  0.10164744  0.87500262  0.74937395     1.04600
Cu576      Cu  0.14837013  0.87499677  0.75063317     1.04300
C577        C  0.12548430  0.91168480  0.71318783     0.93100
C578        C  0.12453538  0.83831473  0.78681924     0.92200
C579        C  0.12454427  0.91169704  0.78680749     0.84400
C580        C  0.12547293  0.83830181  0.71320017     0.90600
O581        O  0.47236813  0.77149849  0.52870040    -0.73100
O582        O  0.02819609  0.77217039  0.47265355    -0.74100
O583        O  0.47181119  0.77216600  0.47266246    -0.62700
O584        O  0.02765727  0.77150178  0.52869203    -0.71100
O585        O  0.02820706  0.72784986  0.52734337    -0.70700
O586        O  0.47236252  0.72851403  0.47131558    -0.61900
O587        O  0.02765092  0.72851847  0.47130566    -0.74400
O588        O  0.47182341  0.72784649  0.52735255    -0.73200
Cu589      Cu  0.00000819  0.77336926  0.50063235     1.04600
Cu590      Cu  0.00001114  0.72664748  0.49937400     1.04300
C591        C  0.46332341  0.74953776  0.53681842     0.93100
C592        C  0.03669544  0.75047909  0.46318712     0.92200
C593        C  0.46331168  0.75047287  0.46319992     0.84400
C594        C  0.03670665  0.74954207  0.53680750     0.90600
N595        N  0.40866254  0.73840137  0.58168086    -0.27500
N596        N  0.41836753  0.76046141  0.59147739    -0.35300
C597        C  0.43913596  0.76790413  0.57684989     0.00900
C598        C  0.44295295  0.74934931  0.55729019     0.06900
C599        C  0.42338528  0.73086784  0.56094562    -0.06200
H600        H  0.45086880  0.78527345  0.58049414     0.07600
H601        H  0.41975694  0.71354244  0.54909643     0.08800
Cu602      Cu  0.40377609  0.77876799  0.62500815     0.44200
Cu603      Cu  0.37513420  0.72030927  0.59615672     0.42000
Cu604      Cu  0.34530958  0.75012960  0.65384911     0.43900
N605        N  0.38546316  0.79336070  0.65853489    -0.34900
N606        N  0.36339979  0.78365803  0.66832723    -0.29100
C607        C  0.35586305  0.79838214  0.68906030    -0.05200
C608        C  0.37434599  0.81794801  0.69271870     0.07000
C609        C  0.39290474  0.81412863  0.67316289     0.00800
H610        H  0.33853487  0.79475548  0.70090673     0.08500
H611        H  0.41027641  0.82585928  0.66952192     0.07500
N612        N  0.33120353  0.71636084  0.63588464    -0.36300
N613        N  0.34136410  0.70620189  0.61411772    -0.28500
C614        C  0.32686240  0.68536325  0.60670845    -0.03700
C615        C  0.30700320  0.68200006  0.62499962     0.04900
C616        C  0.31036472  0.70185804  0.64329206     0.03000
H617        H  0.33082467  0.67325652  0.58959679     0.08100
H618        H  0.29825731  0.70581811  0.66040357     0.06900
N619        N  0.09136853  0.73840449  0.58166828    -0.27500
N620        N  0.08166260  0.76046317  0.59146674    -0.35300
C621        C  0.06089576  0.76790781  0.57683804     0.00900
C622        C  0.05708070  0.74935533  0.55727563     0.06900
C623        C  0.07664777  0.73087343  0.56093067    -0.06200
H624        H  0.04916103  0.78527463  0.58048500     0.07600
H625        H  0.08027518  0.71354784  0.54908145     0.08800
Cu626      Cu  0.09624481  0.77876137  0.62500639     0.44200
Cu627      Cu  0.12489236  0.72030789  0.59614870     0.42000
Cu628      Cu  0.15469248  0.75010547  0.65386637     0.43900
N629        N  0.11454458  0.79334245  0.65854568    -0.34900
N630        N  0.13660150  0.78363314  0.66834553    -0.29100
C631        C  0.14413533  0.79835464  0.68908152    -0.05200
C632        C  0.12565728  0.81792611  0.69273371     0.07000
C633        C  0.10710406  0.81411230  0.67317158     0.00800
H634        H  0.16146047  0.79472510  0.70093134     0.08500
H635        H  0.08973927  0.82585024  0.66952259     0.07500
N636        N  0.16880724  0.71634504  0.63589257    -0.36300
N637        N  0.15865590  0.70619461  0.61411734    -0.28500
C638        C  0.17316236  0.68536057  0.60670438    -0.03700
C639        C  0.19301520  0.68199158  0.62500129     0.04900
C640        C  0.18964481  0.70184137  0.64330114     0.03000
H641        H  0.16920799  0.67326122  0.58958582     0.08100
H642        H  0.20174546  0.70579549  0.66041877     0.06900
O643        O  0.02766198  0.52150516  0.47132029    -0.73100
O644        O  0.47181841  0.52216352  0.52735073    -0.74100
O645        O  0.02820218  0.52216963  0.52735773    -0.62700
O646        O  0.47237237  0.52149782  0.47131236    -0.71100
O647        O  0.47182838  0.97784596  0.47265960    -0.70700
O648        O  0.02765875  0.97851809  0.52870130    -0.61900
O649        O  0.47237102  0.97851164  0.52869726    -0.74400
O650        O  0.02821261  0.97785339  0.47266454    -0.73200
Cu651      Cu  0.00001353  0.52336910  0.49938000     1.04600
Cu652      Cu  0.00001779  0.97664748  0.50063583     1.04300
C653        C  0.03671245  0.49954673  0.46320287     0.93100
C654        C  0.46331996  0.00047008  0.53681403     0.92200
C655        C  0.03670216  0.00047848  0.53682133     0.84400
C656        C  0.46332772  0.49953679  0.46319478     0.90600
N657        N  0.13662789  0.96634133  0.66832239    -0.27500
N658        N  0.11456859  0.95663557  0.65852407    -0.35300
C659        C  0.10712338  0.93586918  0.67315259     0.00900
C660        C  0.12567580  0.93205392  0.69271504     0.06900
C661        C  0.14415854  0.95162068  0.68905996    -0.06200
H662        H  0.08975411  0.92413645  0.66950718     0.07600
H663        H  0.16148309  0.95524979  0.70091108     0.08800
Cu664      Cu  0.09626449  0.97122468  0.62499123     0.44200
Cu665      Cu  0.15472041  0.99986940  0.65384559     0.42000
Cu666      Cu  0.12489396  0.52969805  0.59615840     0.43900
N667        N  0.08166601  0.98954227  0.59147000    -0.34900
N668        N  0.09136648  0.51160740  0.58168118    -0.29100
C669        C  0.07663931  0.51914722  0.56095171    -0.05200
C670        C  0.05707304  0.00066500  0.55729221     0.07000
C671        C  0.06089643  0.98210238  0.57684307     0.00800
H672        H  0.08026318  0.53647797  0.54910885     0.08500
H673        H  0.04916771  0.96472924  0.58048133     0.07500
N674        N  0.15866301  0.54380356  0.61412111    -0.36300
N675        N  0.16882511  0.53364173  0.63588578    -0.28500
C676        C  0.18966362  0.54814453  0.64329414    -0.03700
C677        C  0.19302316  0.56800530  0.62500440     0.04900
C678        C  0.17316322  0.56464394  0.60671404     0.03000
H679        H  0.20177257  0.54418210  0.66040401     0.08100
H680        H  0.16919992  0.57675231  0.58960433     0.06900
N681        N  0.40865484  0.51159631  0.58167237    -0.27500
N682        N  0.41836524  0.98954083  0.59147323    -0.35300
C683        C  0.43913565  0.98210165  0.57684673     0.00900
C684        C  0.44294657  0.00065350  0.55728286     0.06900
C685        C  0.42337516  0.51913012  0.56093555    -0.06200
H686        H  0.45087540  0.96473811  0.58049571     0.07600
H687        H  0.41974265  0.53645308  0.54908381     0.08800
Cu688      Cu  0.40378445  0.97124144  0.62501365     0.44200
Cu689      Cu  0.37512477  0.52968517  0.59614709     0.42000
Cu690      Cu  0.34534440  0.99990991  0.65388331     0.43900
N691        N  0.38548123  0.95666122  0.65855231    -0.34900
N692        N  0.36342810  0.96637591  0.66835562    -0.29100
C693        C  0.35589076  0.95165352  0.68908982    -0.05200
C694        C  0.37436288  0.93207592  0.69273754     0.07000
C695        C  0.39291623  0.93588693  0.67317467     0.00800
H696        H  0.33856830  0.95528721  0.70094204     0.08500
H697        H  0.41027757  0.92414493  0.66952339     0.07500
N698        N  0.33122467  0.53366517  0.63590495    -0.36300
N699        N  0.34136726  0.54380554  0.61412096    -0.28500
C700        C  0.32685804  0.56463624  0.60670434    -0.03700
C701        C  0.30701243  0.56801366  0.62500794     0.04900
C702        C  0.31039015  0.54817222  0.64331547     0.03000
H703        H  0.33080579  0.57672752  0.58957883     0.08100
H704        H  0.29829559  0.54422510  0.66043945     0.06900
O705        O  0.22182817  0.77217113  0.02735330    -0.73100
O706        O  0.27765927  0.77149601  0.97130991    -0.74100
O707        O  0.22237018  0.77150418  0.97131529    -0.62700
O708        O  0.27821274  0.77216107  0.02734770    -0.71100
O709        O  0.27765694  0.72850917  0.02869369    -0.70700
O710        O  0.22181712  0.72785226  0.97266198    -0.61900
O711        O  0.27820062  0.72784399  0.97265674    -0.74400
O712        O  0.22236893  0.72851907  0.02869872    -0.73200
Cu713      Cu  0.25001787  0.77336825  0.99937633     1.04600
Cu714      Cu  0.25001062  0.72664639  0.00063298     1.04300
C715        C  0.21332579  0.75048004  0.03681760     0.93100
C716        C  0.28670281  0.74953491  0.96319192     0.92200
C717        C  0.21331934  0.74954534  0.96319880     0.84400
C718        C  0.28670922  0.75046703  0.03681049     0.90600
N719        N  0.38661181  0.78364147  0.83166844    -0.27500
N720        N  0.36454955  0.79334395  0.84146322    -0.35300
C721        C  0.35710568  0.81411106  0.82683542     0.00900
C722        C  0.37566192  0.81793017  0.80727715     0.06900
C723        C  0.39414562  0.79836493  0.81093387    -0.06200
H724        H  0.33973604  0.82584318  0.83048007     0.07600
H725        H  0.41147435  0.79474023  0.79908733     0.08800
Cu726      Cu  0.34624498  0.77875599  0.87499636     0.44200
Cu727      Cu  0.40470748  0.75011798  0.84615067     0.42000
Cu728      Cu  0.37489110  0.72030356  0.90385341     0.43900
N729        N  0.33165786  0.76045473  0.90853172    -0.34900
N730        N  0.34136349  0.73839589  0.91832999    -0.29100
C731        C  0.32664155  0.73086419  0.93906646    -0.05200
C732        C  0.30707395  0.74934556  0.94272093     0.07000
C733        C  0.31089006  0.76789859  0.92315940     0.00800
H734        H  0.33026990  0.71353936  0.95091692     0.08500
H735        H  0.29915642  0.78526669  0.91951346     0.07500
N736        N  0.40866050  0.70619770  0.88589010    -0.36300
N737        N  0.41881806  0.71635417  0.86412060    -0.28500
C738        C  0.43965722  0.70185202  0.85671321    -0.03700
C739        C  0.44302190  0.68199701  0.87500806     0.04900
C740        C  0.42316443  0.68536128  0.89330086     0.03000
H741        H  0.45176218  0.70581010  0.83959953     0.08100
H742        H  0.41920485  0.67325694  0.91041433     0.06900
N743        N  0.15865498  0.73841192  0.91834083    -0.27500
N744        N  0.16836086  0.76047117  0.90854332    -0.35300
C745        C  0.18912910  0.76791421  0.92317076     0.00900
C746        C  0.19294499  0.74936038  0.94273134     0.06900
C747        C  0.17337694  0.73087923  0.93907672    -0.06200
H748        H  0.20086405  0.78528154  0.91952433     0.07600
H749        H  0.16974961  0.71355318  0.95092508     0.08800
Cu750      Cu  0.15377496  0.77877367  0.87500821     0.44200
Cu751      Cu  0.12512987  0.72031587  0.90386260     0.42000
Cu752      Cu  0.09531867  0.75012263  0.84615862     0.43900
N753        N  0.13546535  0.79336079  0.84147737    -0.34900
N754        N  0.11340544  0.78365354  0.83168207    -0.29100
C755        C  0.10586849  0.79837583  0.81094786    -0.05200
C756        C  0.12434770  0.81794547  0.80729182     0.07000
C757        C  0.14290465  0.81413014  0.82685013     0.00800
H758        H  0.08854264  0.79474556  0.79909942     0.08500
H759        H  0.16027320  0.82586431  0.83049332     0.07500
N760        N  0.08121052  0.71635538  0.86412440    -0.36300
N761        N  0.09136595  0.70620135  0.88589583    -0.28500
C762        C  0.07686324  0.68536358  0.89330567    -0.03700
C763        C  0.05700871  0.68199579  0.87501038     0.04900
C764        C  0.06037404  0.70185037  0.85671480     0.03000
H765        H  0.08082132  0.67326104  0.91042122     0.08100
H766        H  0.04827055  0.70580708  0.83959994     0.06900
O767        O  0.35284925  0.59680118  0.27735155    -0.73100
O768        O  0.35350840  0.65264394  0.22131969    -0.74100
O769        O  0.35351627  0.59735549  0.22131357    -0.62700
O770        O  0.35283989  0.65318444  0.27735838    -0.71100
O771        O  0.39649271  0.65264201  0.27870695    -0.70700
O772        O  0.39716926  0.59681539  0.22265910    -0.61900
O773        O  0.39716110  0.65319868  0.22266887    -0.74400
O774        O  0.39650211  0.59735479  0.27869639    -0.73200
Cu775      Cu  0.35164337  0.62499605  0.24938047     1.04600
Cu776      Cu  0.39836609  0.62500307  0.25063806     1.04300
C777        C  0.37454351  0.58830344  0.28681350     0.93100
C778        C  0.37546778  0.66169577  0.21320457     0.92200
C779        C  0.37547790  0.58831287  0.21319458     0.84400
C780        C  0.37453099  0.66168497  0.28682520     0.90600
O781        O  0.27820664  0.52216281  0.97266206    -0.73100
O782        O  0.22236492  0.52149897  0.02869390    -0.74100
O783        O  0.27765411  0.52149481  0.02869988    -0.62700
O784        O  0.22182280  0.52216487  0.97265616    -0.71100
O785        O  0.22236974  0.97851338  0.97130739    -0.70700
O786        O  0.27819593  0.97784243  0.02735410    -0.61900
O787        O  0.22181158  0.97784733  0.02734482    -0.74400
O788        O  0.27765779  0.97851046  0.97131695    -0.73200
Cu789      Cu  0.25001223  0.52336537  0.00063329     1.04600
Cu790      Cu  0.25000866  0.97664356  0.99937564     1.04300
C791        C  0.28670662  0.50047013  0.96319949     0.93100
C792        C  0.21331386  0.49953985  0.03680905     0.92200
C793        C  0.28669805  0.49953402  0.03681859     0.84400
C794        C  0.21332433  0.00047354  0.96318939     0.90600
N795        N  0.11341976  0.96636639  0.83166251    -0.27500
N796        N  0.13547894  0.95665864  0.84145894    -0.35300
C797        C  0.14291732  0.93588792  0.82683320     0.00900
C798        C  0.12436060  0.93207196  0.80727478     0.06900
C799        C  0.10588248  0.95164288  0.81092922    -0.06200
H800        H  0.16028396  0.92415171  0.83047898     0.07600
H801        H  0.08855551  0.95527164  0.79908155     0.08800
Cu802      Cu  0.15378713  0.97124503  0.87499166     0.44200
Cu803      Cu  0.09533087  0.99989523  0.84614148     0.42000
Cu804      Cu  0.12512641  0.52968825  0.90386109     0.43900
N805        N  0.16837196  0.98954784  0.90852815    -0.34900
N806        N  0.15865930  0.51160152  0.91833158    -0.29100
C807        C  0.17338003  0.51913506  0.93906806    -0.05200
C808        C  0.19295439  0.00066047  0.94271736     0.07000
C809        C  0.18914331  0.98210886  0.92315320     0.00800
H810        H  0.16974645  0.53645670  0.95092152     0.08500
H811        H  0.20088196  0.96474482  0.91950432     0.07500
N812        N  0.09136247  0.54380130  0.88589388    -0.36300
N813        N  0.08121347  0.53365349  0.86411636    -0.28500
C814        C  0.06037743  0.54815868  0.85670666    -0.03700
C815        C  0.05700573  0.56800689  0.87500805     0.04900
C816        C  0.07685604  0.56463509  0.89330724     0.03000
H817        H  0.04827914  0.54420705  0.83958658     0.08100
H818        H  0.08080956  0.57673314  0.91042702     0.06900
N819        N  0.38661820  0.96635048  0.83168205    -0.27500
N820        N  0.36456395  0.95663874  0.84148607    -0.35300
C821        C  0.35712233  0.93586886  0.82686070     0.00900
C822        C  0.37567218  0.93205769  0.80729466     0.06900
C823        C  0.39414938  0.95163044  0.81094407    -0.06200
H824        H  0.33975741  0.92413115  0.83051056     0.07600
H825        H  0.41147026  0.95526390  0.79908895     0.08800
Cu826      Cu  0.34626343  0.97122323  0.87502333     0.44200
Cu827      Cu  0.40470558  0.99988384  0.84615275     0.42000
Cu828      Cu  0.37489299  0.52969697  0.90385530     0.43900
N829        N  0.33167086  0.98953547  0.90855033    -0.34900
N830        N  0.34136998  0.51160161  0.91833868    -0.29100
C831        C  0.32664427  0.51913966  0.93907021    -0.05200
C832        C  0.30708097  0.00065460  0.94273185     0.07000
C833        C  0.31090346  0.98209335  0.92317944     0.00800
H834        H  0.33026700  0.53647121  0.95091231     0.08500
H835        H  0.29917395  0.96472097  0.91954003     0.07500
N836        N  0.40865752  0.54380841  0.88588738    -0.36300
N837        N  0.41881374  0.53365286  0.86411681    -0.28500
C838        C  0.43965158  0.54815651  0.85670804    -0.03700
C839        C  0.44301700  0.56801138  0.87500328     0.04900
C840        C  0.42316098  0.56464546  0.89329738     0.03000
H841        H  0.45175674  0.54419811  0.83959422     0.08100
H842        H  0.41920271  0.57674852  0.91041245     0.06900
O843        O  0.14650274  0.59735908  0.22131222    -0.73100
O844        O  0.14716350  0.65320449  0.27734034    -0.74100
O845        O  0.14717212  0.59682124  0.27734999    -0.62700
O846        O  0.14649588  0.65264615  0.22130309    -0.71100
O847        O  0.10284293  0.65318846  0.22265041    -0.70700
O848        O  0.10351921  0.59736245  0.27869867    -0.61900
O849        O  0.10351064  0.65265031  0.27868808    -0.74400
O850        O  0.10285002  0.59680552  0.22266052    -0.73200
Cu851      Cu  0.14836846  0.62500787  0.24937114     1.04600
Cu852      Cu  0.10164569  0.62500135  0.25062975     1.04300
C853        C  0.12454341  0.58830784  0.21319670     0.93100
C854        C  0.12546964  0.66170268  0.28680302     0.92200
C855        C  0.12548122  0.58832006  0.28681669     0.84400
C856        C  0.12453454  0.66168924  0.21318458     0.85800
N857        N  0.15864157  0.98841428  0.08166042    -0.27500
N858        N  0.16835598  0.51046668  0.09146534    -0.35300
C859        C  0.18912819  0.51790561  0.07684124     0.00900
C860        C  0.19293861  0.49935535  0.05727592     0.06900
C861        C  0.17336229  0.98088133  0.06092350    -0.06200
H862        H  0.20086960  0.53526711  0.08049334     0.07600
H863        H  0.16972900  0.96355975  0.04906992     0.08800
Cu864      Cu  0.15377658  0.52876488  0.12500622     0.44200
Cu865      Cu  0.12511013  0.97032587  0.09613353     0.42000
Cu866      Cu  0.09532490  0.50011250  0.15386360     0.43900
N867        N  0.13547369  0.54334892  0.15854253    -0.34900
N868        N  0.11341529  0.53364089  0.16834074    -0.29100
C869        C  0.10588004  0.54836331  0.18907548    -0.05200
C870        C  0.12435906  0.56793363  0.19272910     0.07000
C871        C  0.14291400  0.56411872  0.17316869     0.00800
H872        H  0.08855416  0.54473424  0.20092442     0.08500
H873        H  0.16028026  0.57585532  0.16952156     0.07500
N874        N  0.08120692  0.96635402  0.13588935    -0.36300
N875        N  0.09135152  0.95620881  0.11410859    -0.28500
C876        C  0.07684492  0.93537415  0.10669744    -0.03700
C877        C  0.05699923  0.93199927  0.12500147     0.04900
C878        C  0.06037375  0.95184641  0.14330337     0.03000
H879        H  0.08079479  0.92327822  0.08957583     0.08100
H880        H  0.04827899  0.95579601  0.16042650     0.06900
N881        N  0.34135448  0.98839270  0.08168490    -0.27500
N882        N  0.33165360  0.51045638  0.09147788    -0.35300
C883        C  0.31088814  0.51790163  0.07684770     0.00900
C884        C  0.30706881  0.49934518  0.05729011     0.06900
C885        C  0.32663173  0.98085944  0.06094956    -0.06200
H886        H  0.29915825  0.53527311  0.08048936     0.07600
H887        H  0.33025680  0.96353114  0.04910318     0.08800
Cu888      Cu  0.34624356  0.52876389  0.12500852     0.44200
Cu889      Cu  0.37487780  0.97029585  0.09616700     0.42000
Cu890      Cu  0.40470886  0.50012713  0.15385074     0.43900
N891        N  0.36455261  0.54335552  0.15853763    -0.34900
N892        N  0.38661574  0.53365354  0.16833060    -0.29100
C893        C  0.39415055  0.54837712  0.18906482    -0.05200
C894        C  0.37566682  0.56794218  0.19272302     0.07000
C895        C  0.35710935  0.56412258  0.17316612     0.00800
H896        H  0.41147855  0.54475140  0.20091136     0.08500
H897        H  0.33973796  0.57585300  0.16952422     0.07500
N898        N  0.41881300  0.96635479  0.13589115    -0.36300
N899        N  0.40864892  0.95619084  0.11412825    -0.28500
C900        C  0.42314969  0.93535095  0.10672097    -0.03700
C901        C  0.44301212  0.93199221  0.12500918     0.04900
C902        C  0.43965341  0.95185417  0.14329789     0.03000
H903        H  0.41918541  0.92324128  0.08961203     0.08100
H904        H  0.45176398  0.95581869  0.16040609     0.06900
N905        N  0.38659975  0.71636051  0.16834657    -0.27500
N906        N  0.36454603  0.70664763  0.15854265    -0.35300
C907        C  0.35710391  0.68587896  0.17316972     0.00900
C908        C  0.37565290  0.68206983  0.19273674     0.06900
C909        C  0.39413013  0.70164238  0.18908609    -0.06200
H910        H  0.33974117  0.67413869  0.16951831     0.07600
H911        H  0.41145212  0.70527509  0.20093945     0.08800
Cu912      Cu  0.34625131  0.72122357  0.12499827     0.44200
Cu913      Cu  0.40469226  0.74988846  0.15386943     0.42000
Cu914      Cu  0.37491218  0.77967138  0.09613820     0.43900
N915        N  0.33166996  0.73952821  0.09146168    -0.34900
N916        N  0.34138144  0.76158446  0.08166286    -0.29100
C917        C  0.32665873  0.76912258  0.06092951    -0.05200
C918        C  0.30708416  0.75064817  0.05727749     0.07000
C919        C  0.31089715  0.73209232  0.07683707     0.00800
H920        H  0.33029017  0.78644779  0.04908064     0.08500
H921        H  0.29915710  0.71472898  0.08048484     0.07500
N922        N  0.40866725  0.79379233  0.11411581    -0.36300
N923        N  0.41881086  0.78364845  0.13589754    -0.28500
C924        C  0.43964270  0.79815781  0.14331236    -0.03700
C925        C  0.44301719  0.81800456  0.12500979     0.04900
C926        C  0.42317291  0.81462755  0.10670500     0.03000
H927        H  0.45173720  0.79420915  0.16043554     0.08100
H928        H  0.41922371  0.82672232  0.08958189     0.06900
N929        N  0.15866315  0.76161336  0.08167913    -0.27500
N930        N  0.16836770  0.73955245  0.09147385    -0.35300
C931        C  0.18913695  0.73211161  0.07684670     0.00900
C932        C  0.19295493  0.75066833  0.05728908     0.06900
C933        C  0.17338708  0.76914921  0.06094536    -0.06200
H934        H  0.20086946  0.71474217  0.08048949     0.07600
H935        H  0.16975920  0.78647545  0.04909724     0.08800
Cu936      Cu  0.15377560  0.72124109  0.12500199     0.44200
Cu937      Cu  0.12513380  0.77970299  0.09615557     0.42000
Cu938      Cu  0.09531916  0.74988672  0.15385538     0.43900
N939        N  0.13546445  0.70664741  0.15852966    -0.34900
N940        N  0.11340501  0.71635386  0.16832677    -0.29100
C941        C  0.10586798  0.70162941  0.18905945    -0.05200
C942        C  0.12434668  0.68205911  0.19271268     0.07000
C943        C  0.14290349  0.68587624  0.17315433     0.00800
H944        H  0.08854277  0.70525880  0.20090912     0.08500
H945        H  0.16027208  0.67414271  0.16951001     0.07500
N946        N  0.08121012  0.78365397  0.13589151    -0.36300
N947        N  0.09136642  0.79381077  0.11412156    -0.28500
C948        C  0.07686230  0.81464752  0.10671230    -0.03700
C949        C  0.05700599  0.81801163  0.12500652     0.04900
C950        C  0.06037180  0.79815622  0.14330076     0.03000
H951        H  0.08082053  0.82675181  0.08959829     0.08100
H952        H  0.04826684  0.79419673  0.16041449     0.06900
N953        N  0.09137951  0.98841912  0.41834618    -0.27500
N954        N  0.08167662  0.51048169  0.40855319    -0.35300
C955        C  0.06090753  0.51792225  0.42318069     0.00900
C956        C  0.05708836  0.49936379  0.44273647     0.06900
C957        C  0.07665520  0.98088249  0.43907921    -0.06200
H958        H  0.04917382  0.53529092  0.41953726     0.07600
H959        H  0.08028052  0.96355327  0.45092402     0.08800
Cu960      Cu  0.09626429  0.52878878  0.37502092     0.44200
Cu961      Cu  0.12490378  0.97032487  0.40386366     0.42000
Cu962      Cu  0.15471441  0.50013691  0.34616013     0.43900
N963        N  0.11456473  0.54337236  0.34148310    -0.34900
N964        N  0.13662251  0.53366466  0.33168333    -0.29100
C965        C  0.14415309  0.54838380  0.31094453    -0.05200
C966        C  0.12567175  0.56795151  0.30728998     0.07000
C967        C  0.10712030  0.56413852  0.32685411     0.00800
H968        H  0.16147655  0.54475312  0.29909239     0.08500
H969        H  0.08975253  0.57587295  0.33050066     0.07500
N970        N  0.16882072  0.96636684  0.36412089    -0.36300
N971        N  0.15866525  0.95621082  0.38589153    -0.28500
C972        C  0.17316607  0.93537073  0.39329781    -0.03700
C973        C  0.19301962  0.93200371  0.37500110     0.04900
C974        C  0.18965556  0.95186100  0.35670836     0.03000
H975        H  0.16920779  0.92326679  0.41041198     0.08100
H976        H  0.20175915  0.95581925  0.33959362     0.06900
N977        N  0.40866688  0.98839703  0.41833215    -0.27500
N978        N  0.41837805  0.51045113  0.40852913    -0.35300
C979        C  0.43914603  0.51789528  0.42315655     0.00900
C980        C  0.44295685  0.49934691  0.44272348     0.06900
C981        C  0.42338610  0.98086809  0.43907147    -0.06200
H982        H  0.45088341  0.53525996  0.41950668     0.07600
H983        H  0.41975384  0.96354701  0.45092589     0.08800
Cu984      Cu  0.40379735  0.52874869  0.37498859     0.44200
Cu985      Cu  0.37513721  0.97030403  0.40385866     0.42000
Cu986      Cu  0.34533528  0.50010570  0.34614670     0.43900
N987        N  0.38548590  0.54333838  0.34145973    -0.34900
N988        N  0.36342366  0.53363354  0.33166745    -0.29100
C989        C  0.35588299  0.54835898  0.31093703    -0.05200
C990        C  0.37436207  0.56792845  0.30728019     0.07000
C991        C  0.39292294  0.56410963  0.32683407     0.00800
H992        H  0.33855348  0.54473226  0.29909293     0.08500
H993        H  0.41029147  0.57584404  0.33047675     0.07500
N994        N  0.33121842  0.96634647  0.36411885    -0.36300
N995        N  0.34136990  0.95619407  0.38589289    -0.28500
C996        C  0.32686210  0.93536022  0.39330454    -0.03700
C997        C  0.30700857  0.93199374  0.37500757     0.04900
C998        C  0.31037980  0.95184467  0.35670948     0.03000
H999        H  0.33081655  0.92325885  0.41042135     0.08100
H1000       H  0.29827914  0.95580077  0.33959233     0.06900
N1001       N  0.40863701  0.76159368  0.41835041    -0.27500
N1002       N  0.41834379  0.73953426  0.40855431    -0.35300
C1003       C  0.43911697  0.73209766  0.42317776     0.00900
C1004       C  0.44293532  0.75065583  0.44273407     0.06900
C1005       C  0.42336334  0.76913288  0.43908112    -0.06200
H1006       H  0.45085290  0.71473115  0.41953214     0.07600
H1007       H  0.41973554  0.78645996  0.45092817     0.08800
Cu1008     Cu  0.40375411  0.72122288  0.37502474     0.44200
Cu1009     Cu  0.37510651  0.77968158  0.40387494     0.42000
Cu1010     Cu  0.34531159  0.74988090  0.34615689     0.43900
N1011       N  0.38545176  0.70663565  0.34148898    -0.34900
N1012       N  0.36339689  0.71634678  0.33168633    -0.29100
C1013       C  0.35586427  0.70162624  0.31094929    -0.05200
C1014       C  0.37434135  0.68205390  0.30729840     0.07000
C1015       C  0.39289249  0.68586563  0.32686319     0.00800
H1016       H  0.33854272  0.70525978  0.29909512     0.08500
H1017       H  0.41025773  0.67412850  0.33051158     0.07500
N1018       N  0.33120034  0.78364744  0.36412125    -0.36300
N1019       N  0.34134871  0.79379769  0.38589792    -0.28500
C1020       C  0.32684515  0.81463551  0.39330525    -0.03700
C1021       C  0.30699747  0.81800723  0.37500311     0.04900
C1022       C  0.31036777  0.79815501  0.35670603     0.03000
H1023       H  0.33079789  0.82673519  0.41042366     0.08100
H1024       H  0.29826943  0.79420097  0.33958639     0.06900
N1025       N  0.13659147  0.71637677  0.33165178    -0.27500
N1026       N  0.11453514  0.70666631  0.34145229    -0.35300
C1027       C  0.10709766  0.68589343  0.32682909     0.00900
C1028       C  0.12565242  0.68207905  0.30726840     0.06900
C1029       C  0.14412807  0.70165311  0.31091838    -0.06200
H1030       H  0.08973350  0.67415457  0.33047830     0.07600
H1031       H  0.16145289  0.70528342  0.29906831     0.08800
Cu1032     Cu  0.09623021  0.72125111  0.37498738     0.44200
Cu1033     Cu  0.15467909  0.74990818  0.34612542     0.42000
Cu1034     Cu  0.12488017  0.77970613  0.40384067     0.43900
N1035       N  0.08164560  0.73955525  0.40852304    -0.34900
N1036       N  0.09135282  0.76161433  0.41831957    -0.29100
C1037       C  0.07663270  0.76914777  0.43905673    -0.05200
C1038       C  0.05706456  0.75066723  0.44271376     0.07000
C1039       C  0.06087838  0.73211297  0.42315273     0.00800
H1040       H  0.08026287  0.78647302  0.45090593     0.08500
H1041       H  0.04914381  0.71474518  0.41950876     0.07500
N1042       N  0.15864478  0.79381859  0.38587281    -0.36300
N1043       N  0.16879549  0.78366850  0.36409716    -0.28500
C1044       C  0.18963416  0.79817115  0.35668897    -0.03700
C1045       C  0.19300600  0.81801988  0.37498974     0.04900
C1046       C  0.17315281  0.81465123  0.39328658     0.03000
H1047       H  0.20173515  0.79421628  0.33957152     0.08100
H1048       H  0.16919929  0.82674995  0.41040592     0.06900
O1049       O  0.02770809  0.90307696  0.14694209    -0.73100
O1050       O  0.47231126  0.84692726  0.14694690    -0.74100
O1051       O  0.02770913  0.84692935  0.14694423    -0.62700
O1052       O  0.47231071  0.90307532  0.14694565    -0.71100
O1053       O  0.47193077  0.90269663  0.10307016    -0.70700
O1054       O  0.02808469  0.84730522  0.10306877    -0.61900
O1055       O  0.47193614  0.84730002  0.10307135    -0.74400
O1056       O  0.02807941  0.90270187  0.10306649    -0.73200
Cu1057     Cu  0.00000986  0.87500225  0.14848681     1.04600
Cu1058     Cu  0.00000768  0.87500083  0.10152708     1.04300
C1059       C  0.03664603  0.91164301  0.12500345     0.93100
C1060       C  0.46337116  0.83836023  0.12500958     0.92200
C1061       C  0.03665023  0.83836489  0.12500642     0.84400
C1062       C  0.46336749  0.91163845  0.12500827     0.90600
O1063       O  0.27808417  0.90269978  0.39694246    -0.73100
O1064       O  0.22192886  0.84730857  0.39693276    -0.74100
O1065       O  0.27807758  0.84730326  0.39693860    -0.62700
O1066       O  0.22193530  0.90270463  0.39693757    -0.71100
O1067       O  0.22231456  0.90308404  0.35306207    -0.70700
O1068       O  0.27770666  0.84693019  0.35306297    -0.61900
O1069       O  0.22230848  0.84693650  0.35305721    -0.74400
O1070       O  0.27771221  0.90307778  0.35306691    -0.73200
Cu1071     Cu  0.25000630  0.87500393  0.39847993     1.04600
Cu1072     Cu  0.25001065  0.87500720  0.35152017     1.04300
C1073       C  0.28665204  0.91164081  0.37500582     0.93100
C1074       C  0.21336427  0.83837107  0.37499342     0.92200
C1075       C  0.28664431  0.83836320  0.37500125     0.84400
C1076       C  0.21337272  0.91164778  0.37499999     0.90600
O1077       O  0.27771496  0.59693346  0.64694193    -0.73100
O1078       O  0.22231175  0.65307371  0.64693831    -0.74100
O1079       O  0.22231762  0.59692650  0.64694116    -0.62700
O1080       O  0.27770864  0.65308033  0.64693820    -0.71100
O1081       O  0.27808677  0.65270086  0.60306266    -0.70700
O1082       O  0.22194063  0.59730171  0.60306556    -0.61900
O1083       O  0.22193750  0.65269834  0.60306282    -0.74400
O1084       O  0.27808968  0.59730392  0.60306631    -0.73200
Cu1085     Cu  0.25001324  0.62500356  0.64848181     1.04600
Cu1086     Cu  0.25001369  0.62500112  0.60152202     1.04300
C1087       C  0.28665601  0.58836658  0.62500504     0.93100
C1088       C  0.21337102  0.66163819  0.62500052     0.92200
C1089       C  0.21337680  0.58836073  0.62500375     0.84400
C1090       C  0.28664992  0.66164412  0.62500012     0.90600
O1091       O  0.47193994  0.65270098  0.89694630    -0.73100
O1092       O  0.02808615  0.59730216  0.89694633    -0.74100
O1093       O  0.02808894  0.65269931  0.89694774    -0.62700
O1094       O  0.47193711  0.59730446  0.89694391    -0.71100
O1095       O  0.47231525  0.59693011  0.85306833    -0.70700
O1096       O  0.02771411  0.65307615  0.85307217    -0.61900
O1097       O  0.02771258  0.59692866  0.85307069    -0.74400
O1098       O  0.47231714  0.65307752  0.85307071    -0.73200
Cu1099     Cu  0.00001304  0.62500164  0.89848833     1.04600
Cu1100     Cu  0.00001486  0.62500312  0.85152852     1.04300
C1101       C  0.46337601  0.66164230  0.87500843     0.93100
C1102       C  0.03665184  0.58836217  0.87500843     0.92200
C1103       C  0.03665445  0.66164064  0.87501024     0.84400
C1104       C  0.46337276  0.58836492  0.87500531     0.90600
O1105       O  0.85351567  0.34735561  0.77869485    -0.73100
O1106       O  0.85285196  0.40320296  0.72266727    -0.74100
O1107       O  0.85284407  0.34681908  0.72265667    -0.62700
O1108       O  0.85352126  0.40264396  0.77870537    -0.71100
O1109       O  0.89717415  0.40318842  0.77735484    -0.70700
O1110       O  0.89649689  0.34736071  0.72130902    -0.61900
O1111       O  0.89650468  0.40264803  0.72131768    -0.74400
O1112       O  0.89716841  0.34680544  0.77734623    -0.73200
Cu1113     Cu  0.85164810  0.37500557  0.75063637     1.04600
Cu1114     Cu  0.89837080  0.37500047  0.74937655     1.04300
C1115       C  0.87547570  0.33830566  0.78680984     0.93100
C1116       C  0.87454569  0.41170041  0.71320326     0.92200
C1117       C  0.87453517  0.33831778  0.71319070     0.84400
C1118       C  0.87548301  0.41168824  0.78682221     0.90600
O1119       O  0.60352225  0.40264212  0.72130580    -0.73100
O1120       O  0.60284398  0.34681488  0.77735360    -0.74100
O1121       O  0.60285108  0.40319879  0.77734419    -0.62700
O1122       O  0.60351374  0.34735358  0.72131519    -0.71100
O1123       O  0.64716646  0.34680024  0.72266423    -0.70700
O1124       O  0.64650380  0.40264552  0.77869252    -0.61900
O1125       O  0.64649685  0.34735828  0.77870141    -0.74400
O1126       O  0.64717508  0.40318339  0.72265517    -0.73200
Cu1127     Cu  0.60164762  0.37500255  0.74937435     1.04600
Cu1128     Cu  0.64837028  0.37499664  0.75063365     1.04300
C1129       C  0.62548459  0.41168481  0.71318837     0.93100
C1130       C  0.62453547  0.33831458  0.78681964     0.92200
C1131       C  0.62454450  0.41169694  0.78680785     0.84400
C1132       C  0.62547316  0.33830183  0.71320052     0.90600
O1133       O  0.97236794  0.27149858  0.52870028    -0.73100
O1134       O  0.52819566  0.27217055  0.47265355    -0.74100
O1135       O  0.97181088  0.27216605  0.47266239    -0.62700
O1136       O  0.52765703  0.27150191  0.52869204    -0.71100
O1137       O  0.52820700  0.22785003  0.52734341    -0.70700
O1138       O  0.97236225  0.22851409  0.47131557    -0.61900
O1139       O  0.52765074  0.22851862  0.47130565    -0.74400
O1140       O  0.97182333  0.22784657  0.52735248    -0.73200
Cu1141     Cu  0.50000788  0.27336938  0.50063234     1.04600
Cu1142     Cu  0.50001103  0.22664761  0.49937396     1.04300
C1143       C  0.96332338  0.24953781  0.53681840     0.93100
C1144       C  0.53669521  0.25047928  0.46318720     0.92200
C1145       C  0.96331148  0.25047292  0.46319976     0.84400
C1146       C  0.53670658  0.24954225  0.53680748     0.90600
N1147       N  0.90866270  0.23840086  0.58168074    -0.27500
N1148       N  0.91836760  0.26046087  0.59147742    -0.35300
C1149       C  0.93913597  0.26790383  0.57684987     0.00900
C1150       C  0.94295291  0.24934914  0.55729008     0.06900
C1151       C  0.92338537  0.23086758  0.56094538    -0.06200
H1152       H  0.95086884  0.28527294  0.58049406     0.07600
H1153       H  0.91975719  0.21354214  0.54909613     0.08800
Cu1154     Cu  0.90377614  0.27876713  0.62500830     0.44200
Cu1155     Cu  0.87513441  0.22030862  0.59615621     0.42000
Cu1156     Cu  0.84530908  0.25012979  0.65384839     0.43900
N1157       N  0.88546306  0.29336028  0.65853475    -0.34900
N1158       N  0.86339950  0.28365806  0.66832694    -0.29100
C1159       C  0.85586282  0.29838254  0.68905983    -0.05200
C1160       C  0.87434601  0.31794806  0.69271836     0.07000
C1161       C  0.89290496  0.31412822  0.67316276     0.00800
H1162       H  0.83853447  0.29475631  0.70090620     0.08500
H1163       H  0.91027657  0.32585835  0.66952200     0.07500
N1164       N  0.83120343  0.21636058  0.63588411    -0.36300
N1165       N  0.84136428  0.20620138  0.61411741    -0.28500
C1166       C  0.82686263  0.18536259  0.60670824    -0.03700
C1167       C  0.80700331  0.18199953  0.62499940     0.04900
C1168       C  0.81036462  0.20185778  0.64329149     0.03000
H1169       H  0.83082508  0.17325577  0.58959700     0.08100
H1170       H  0.79825699  0.20581804  0.66040314     0.06900
N1171       N  0.59136861  0.23840518  0.58166830    -0.27500
N1172       N  0.58166253  0.26046392  0.59146660    -0.35300
C1173       C  0.56089563  0.26790816  0.57683800     0.00900
C1174       C  0.55708064  0.24935569  0.55727567     0.06900
C1175       C  0.57664789  0.23087399  0.56093079    -0.06200
H1176       H  0.54916064  0.28527516  0.58048506     0.07600
H1177       H  0.58027551  0.21354832  0.54908161     0.08800
Cu1178     Cu  0.59624472  0.27876243  0.62500604     0.44200
Cu1179     Cu  0.62489262  0.22030875  0.59614888     0.42000
Cu1180     Cu  0.65469211  0.25010546  0.65386678     0.43900
N1181       N  0.61454478  0.29334312  0.65854539    -0.34900
N1182       N  0.63660132  0.28363336  0.66834552    -0.29100
C1183       C  0.64413523  0.29835471  0.68908159    -0.05200
C1184       C  0.62565748  0.31792636  0.69273387     0.07000
C1185       C  0.60710441  0.31411293  0.67317149     0.00800
H1186       H  0.66145997  0.29472449  0.70093171     0.08500
H1187       H  0.58974000  0.32585117  0.66952238     0.07500
N1188       N  0.66880712  0.21634516  0.63589316    -0.36300
N1189       N  0.65865600  0.20619499  0.61411769    -0.28500
C1190       C  0.67316251  0.18536105  0.60670466    -0.03700
C1191       C  0.69301515  0.18199184  0.62500177     0.04900
C1192       C  0.68964451  0.20184141  0.64330174     0.03000
H1193       H  0.66920823  0.17326189  0.58958600     0.08100
H1194       H  0.70174512  0.20579556  0.66041972     0.06900
O1195       O  0.52766137  0.02150539  0.47132021    -0.73100
O1196       O  0.97181705  0.02216347  0.52735013    -0.74100
O1197       O  0.52820073  0.02217025  0.52735791    -0.62700
O1198       O  0.97237202  0.02149794  0.47131185    -0.71100
O1199       O  0.97182858  0.47784584  0.47266025    -0.70700
O1200       O  0.52765973  0.47851740  0.52870105    -0.61900
O1201       O  0.97237193  0.47851165  0.52869795    -0.74400
O1202       O  0.52821296  0.47785324  0.47266431    -0.73200
Cu1203     Cu  0.50001250  0.02336934  0.49937978     1.04600
Cu1204     Cu  0.50001839  0.47664724  0.50063595     1.04300
C1205       C  0.53671198  0.99954688  0.46320305     0.93100
C1206       C  0.96332141  0.50047028  0.53681483     0.92200
C1207       C  0.53670338  0.50047771  0.53682101     0.84400
C1208       C  0.96332760  0.99953690  0.46319407     0.90600
N1209       N  0.63662858  0.46634091  0.66832250    -0.27500
N1210       N  0.61456905  0.45663544  0.65852445    -0.35300
C1211       C  0.60712370  0.43586925  0.67315311     0.00900
C1212       C  0.62567603  0.43205385  0.69271551     0.06900
C1213       C  0.64415913  0.45162028  0.68906023    -0.06200
H1214       H  0.58975403  0.42413672  0.66950791     0.07600
H1215       H  0.66148339  0.45524920  0.70091129     0.08800
Cu1216     Cu  0.59626510  0.47122443  0.62499155     0.44200
Cu1217     Cu  0.65472139  0.49986892  0.65384542     0.42000
Cu1218     Cu  0.62489338  0.02969817  0.59615819     0.43900
N1219       N  0.58166701  0.48954137  0.59146979    -0.34900
N1220       N  0.59136522  0.01160830  0.58168152    -0.29100
C1221       C  0.57663784  0.01914829  0.56095220    -0.05200
C1222       C  0.55707443  0.50066386  0.55729166     0.07000
C1223       C  0.56089764  0.48210141  0.57684271     0.00800
H1224       H  0.58026168  0.03647896  0.54910931     0.08500
H1225       H  0.54916881  0.46472805  0.58048105     0.07500
N1226       N  0.65866266  0.04380331  0.61412075    -0.36300
N1227       N  0.66882450  0.03364178  0.63588563    -0.28500
C1228       C  0.68966299  0.04814468  0.64329414    -0.03700
C1229       C  0.69302265  0.06800530  0.62500412     0.04900
C1230       C  0.67316298  0.06464357  0.60671353     0.03000
H1231       H  0.70177138  0.04418264  0.66040408     0.08100
H1232       H  0.66919980  0.07675169  0.58960355     0.06900
N1233       N  0.90865322  0.01159561  0.58167162    -0.27500
N1234       N  0.91836664  0.48954161  0.59147396    -0.35300
C1235       C  0.93913733  0.48210236  0.57684777     0.00900
C1236       C  0.94294831  0.50065420  0.55728390     0.06900
C1237       C  0.92337337  0.01912948  0.56093464    -0.06200
H1238       H  0.95087670  0.46473885  0.58049664     0.07600
H1239       H  0.91974112  0.03645262  0.54908340     0.08800
Cu1240     Cu  0.90378487  0.47124158  0.62501349     0.44200
Cu1241     Cu  0.87512420  0.02968543  0.59614706     0.42000
Cu1242     Cu  0.84534470  0.49991039  0.65388388     0.43900
N1243       N  0.88548125  0.45666135  0.65855182    -0.34900
N1244       N  0.86342829  0.46637622  0.66835545    -0.29100
C1245       C  0.85589131  0.45165395  0.68908973    -0.05200
C1246       C  0.87436320  0.43207613  0.69273713     0.07000
C1247       C  0.89291627  0.43588694  0.67317398     0.00800
H1248       H  0.83856884  0.45528793  0.70094243     0.08500
H1249       H  0.91027729  0.42414466  0.66952240     0.07500
N1250       N  0.83122398  0.03366474  0.63590450    -0.36300
N1251       N  0.84136672  0.04380553  0.61412075    -0.28500
C1252       C  0.82685742  0.06463611  0.60670419    -0.03700
C1253       C  0.80701148  0.06801309  0.62500738     0.04900
C1254       C  0.81038913  0.04817144  0.64331482     0.03000
H1255       H  0.83080544  0.07672779  0.58957872     0.08100
H1256       H  0.79829467  0.04422420  0.66043879     0.06900
O1257       O  0.72182830  0.27217106  0.02735352    -0.73100
O1258       O  0.77765910  0.27149629  0.97130970    -0.74100
O1259       O  0.72237004  0.27150410  0.97131556    -0.62700
O1260       O  0.77821292  0.27216155  0.02734756    -0.71100
O1261       O  0.77765752  0.22850966  0.02869351    -0.70700
O1262       O  0.72181726  0.22785217  0.97266217    -0.61900
O1263       O  0.77820072  0.22784429  0.97265657    -0.74400
O1264       O  0.72236940  0.22851888  0.02869899    -0.73200
Cu1265     Cu  0.75001783  0.27336840  0.99937638     1.04600
Cu1266     Cu  0.75001094  0.22664652  0.00063301     1.04300
C1267       C  0.71332622  0.25047985  0.03681792     0.93100
C1268       C  0.78670265  0.24953523  0.96319160     0.92200
C1269       C  0.71331913  0.24954524  0.96319923     0.84400
C1270       C  0.78670969  0.25046759  0.03681027     0.90600
N1271       N  0.88661185  0.28364238  0.83166864    -0.27500
N1272       N  0.86454913  0.29334434  0.84146264    -0.35300
C1273       C  0.85710521  0.31411128  0.82683450     0.00900
C1274       C  0.87566196  0.31793076  0.80727681     0.06900
C1275       C  0.89414604  0.29836602  0.81093424    -0.06200
H1276       H  0.83973517  0.32584272  0.83047832     0.07600
H1277       H  0.91147500  0.29474179  0.79908838     0.08800
Cu1278     Cu  0.84624404  0.27875608  0.87499538     0.44200
Cu1279     Cu  0.90470742  0.25011904  0.84615145     0.42000
Cu1280     Cu  0.87489119  0.22030422  0.90385373     0.43900
N1281       N  0.83165714  0.26045490  0.90853093    -0.34900
N1282       N  0.84136315  0.23839643  0.91832962    -0.29100
C1283       C  0.82664145  0.23086476  0.93906635    -0.05200
C1284       C  0.80707360  0.24934599  0.94272045     0.07000
C1285       C  0.81088926  0.26789874  0.92315854     0.00800
H1286       H  0.83027018  0.21354050  0.95091709     0.08500
H1287       H  0.79915533  0.28526657  0.91951232     0.07500
N1288       N  0.90866050  0.20619815  0.88589030    -0.36300
N1289       N  0.91881813  0.21635496  0.86412089    -0.28500
C1290       C  0.93965707  0.20185276  0.85671329    -0.03700
C1291       C  0.94302171  0.18199735  0.87500781     0.04900
C1292       C  0.92316428  0.18536154  0.89330066     0.03000
H1293       H  0.95176211  0.20581127  0.83959947     0.08100
H1294       H  0.91920444  0.17325667  0.91041405     0.06900
N1295       N  0.65865483  0.23841165  0.91834111    -0.27500
N1296       N  0.66836052  0.26047117  0.90854391    -0.35300
C1297       C  0.68912865  0.26791432  0.92317149     0.00900
C1298       C  0.69294462  0.24936016  0.94273187     0.06900
C1299       C  0.67337691  0.23087884  0.93907678    -0.06200
H1300       H  0.70086318  0.28528178  0.91952547     0.07600
H1301       H  0.66974962  0.21355240  0.95092526     0.08800
Cu1302     Cu  0.65377474  0.27877400  0.87500891     0.44200
Cu1303     Cu  0.62513007  0.22031555  0.90386204     0.42000
Cu1304     Cu  0.59531913  0.25012181  0.84615786     0.43900
N1305       N  0.63546528  0.29336071  0.84147778    -0.34900
N1306       N  0.61340576  0.28365298  0.83168203    -0.29100
C1307       C  0.60586893  0.29837523  0.81094781    -0.05200
C1308       C  0.62434775  0.31794535  0.80729226     0.07000
C1309       C  0.64290447  0.31413022  0.82685073     0.00800
H1310       H  0.58854345  0.29474452  0.79909892     0.08500
H1311       H  0.66027252  0.32586507  0.83049448     0.07500
N1312       N  0.58121073  0.21635483  0.86412373    -0.36300
N1313       N  0.59136608  0.20620098  0.88589526    -0.28500
C1314       C  0.57686319  0.18536335  0.89330546    -0.03700
C1315       C  0.55700856  0.18199564  0.87501026     0.04900
C1316       C  0.56037413  0.20184988  0.85671442     0.03000
H1317       H  0.58082095  0.17326120  0.91042105     0.08100
H1318       H  0.54827047  0.20580644  0.83959952     0.06900
O1319       O  0.85284891  0.09680140  0.27735059    -0.73100
O1320       O  0.85350881  0.15264417  0.22131893    -0.74100
O1321       O  0.85351626  0.09735598  0.22131268    -0.62700
O1322       O  0.85284011  0.15318480  0.27735760    -0.71100
O1323       O  0.89649289  0.15264192  0.27870646    -0.70700
O1324       O  0.89716925  0.09681561  0.22265858    -0.61900
O1325       O  0.89716152  0.15319884  0.22266849    -0.74400
O1326       O  0.89650175  0.09735482  0.27869584    -0.73200
Cu1327     Cu  0.85164341  0.12499642  0.24937964     1.04600
Cu1328     Cu  0.89836615  0.12500313  0.25063755     1.04300
C1329       C  0.87454303  0.08830358  0.28681277     0.93100
C1330       C  0.87546829  0.16169600  0.21320403     0.92200
C1331       C  0.87547790  0.08831329  0.21319385     0.84400
C1332       C  0.87453123  0.16168518  0.28682452     0.90600
O1333       O  0.77820680  0.02216248  0.97266208    -0.73100
O1334       O  0.72236471  0.02149922  0.02869352    -0.74100
O1335       O  0.77765385  0.02149441  0.02869983    -0.62700
O1336       O  0.72182304  0.02216528  0.97265576    -0.71100
O1337       O  0.72236988  0.47851295  0.97130796    -0.70700
O1338       O  0.77819676  0.47784280  0.02735396    -0.61900
O1339       O  0.72181246  0.47784703  0.02734537    -0.74400
O1340       O  0.77765799  0.47851071  0.97131677    -0.73200
Cu1341     Cu  0.75001218  0.02336536  0.00063316     1.04600
Cu1342     Cu  0.75000917  0.47664352  0.99937584     1.04300
C1343       C  0.78670673  0.00046975  0.96319967     0.93100
C1344       C  0.71331317  0.99954022  0.03680847     0.92200
C1345       C  0.78669765  0.99953362  0.03681856     0.84400
C1346       C  0.71332404  0.50047301  0.96319013     0.90600
N1347       N  0.61341999  0.46636645  0.83166243    -0.27500
N1348       N  0.63547929  0.45665903  0.84145883    -0.35300
C1349       C  0.64291767  0.43588827  0.82683320     0.00900
C1350       C  0.62436096  0.43207200  0.80727493     0.06900
C1351       C  0.60588271  0.45164281  0.81092917    -0.06200
H1352       H  0.66028441  0.42415201  0.83047897     0.07600
H1353       H  0.58855578  0.45527116  0.79908177     0.08800
Cu1354     Cu  0.65378713  0.47124548  0.87499169     0.44200
Cu1355     Cu  0.59533056  0.49989494  0.84614129     0.42000
Cu1356     Cu  0.62512611  0.02968801  0.90386128     0.43900
N1357       N  0.66837141  0.48954725  0.90852899    -0.34900
N1358       N  0.65865970  0.01160199  0.91833083    -0.29100
C1359       C  0.67338051  0.01913577  0.93906723    -0.05200
C1360       C  0.69295375  0.50065968  0.94271842     0.07000
C1361       C  0.68914254  0.48210811  0.92315427     0.00800
H1362       H  0.66974671  0.03645715  0.95092087     0.08500
H1363       H  0.70088124  0.46474397  0.91950547     0.07500
N1364       N  0.59136228  0.04380125  0.88589419    -0.36300
N1365       N  0.58121358  0.03365374  0.86411651    -0.28500
C1366       C  0.56037757  0.04815902  0.85670657    -0.03700
C1367       C  0.55700562  0.06800697  0.87500816     0.04900
C1368       C  0.57685566  0.06463494  0.89330762     0.03000
H1369       H  0.54827959  0.04420749  0.83958654     0.08100
H1370       H  0.58080900  0.07673284  0.91042724     0.06900
N1371       N  0.88661820  0.46635075  0.83168214    -0.27500
N1372       N  0.86456401  0.45663861  0.84148600    -0.35300
C1373       C  0.85712272  0.43586877  0.82686044     0.00900
C1374       C  0.87567255  0.43205798  0.80729440     0.06900
C1375       C  0.89414962  0.45163098  0.81094405    -0.06200
H1376       H  0.83975778  0.42413062  0.83051022     0.07600
H1377       H  0.91147035  0.45526491  0.79908903     0.08800
Cu1378     Cu  0.84626315  0.47122280  0.87502327     0.44200
Cu1379     Cu  0.90470536  0.49988429  0.84615295     0.42000
Cu1380     Cu  0.87489248  0.02969748  0.90385488     0.43900
N1381       N  0.83167067  0.48953559  0.90855008    -0.34900
N1382       N  0.84136985  0.01160170  0.91833883    -0.29100
C1383       C  0.82664415  0.01913952  0.93907040    -0.05200
C1384       C  0.80708072  0.50065498  0.94273146     0.07000
C1385       C  0.81090305  0.48209367  0.92317906     0.00800
H1386       H  0.83026634  0.03647147  0.95091213     0.08500
H1387       H  0.79917336  0.46472158  0.91953961     0.07500
N1388       N  0.90865704  0.04380857  0.88588664    -0.36300
N1389       N  0.91881343  0.03365268  0.86411636    -0.28500
C1390       C  0.93965136  0.04815621  0.85670751    -0.03700
C1391       C  0.94301655  0.06801142  0.87500248     0.04900
C1392       C  0.92316041  0.06464584  0.89329647     0.03000
H1393       H  0.95175657  0.04419752  0.83959399     0.08100
H1394       H  0.91920219  0.07674909  0.91041117     0.06900
O1395       O  0.64650257  0.09735892  0.22131300    -0.73100
O1396       O  0.64716323  0.15320440  0.27734117    -0.74100
O1397       O  0.64717146  0.09682126  0.27735073    -0.62700
O1398       O  0.64649620  0.15264615  0.22130398    -0.71100
O1399       O  0.60284320  0.15318877  0.22265100    -0.70700
O1400       O  0.60351853  0.09736283  0.27869924    -0.61900
O1401       O  0.60351048  0.15265063  0.27868867    -0.74400
O1402       O  0.60284988  0.09680558  0.22266106    -0.73200
Cu1403     Cu  0.64836823  0.12500782  0.24937200     1.04600
Cu1404     Cu  0.60164547  0.12500163  0.25063031     1.04300
C1405       C  0.62454329  0.08830779  0.21319727     0.93100
C1406       C  0.62546948  0.16170280  0.28680380     0.92200
C1407       C  0.62548046  0.08832034  0.28681742     0.84400
C1408       C  0.62453495  0.16168935  0.21318533     0.85800
N1409       N  0.65864215  0.48841398  0.08166090    -0.27500
N1410       N  0.66835553  0.01046687  0.09146506    -0.35300
C1411       C  0.68912753  0.01790599  0.07684070     0.00900
C1412       C  0.69293777  0.99935579  0.05727523     0.06900
C1413       C  0.67336299  0.48088096  0.06092403    -0.06200
H1414       H  0.70086893  0.03526751  0.08049258     0.07600
H1415       H  0.66972981  0.46355948  0.04907067     0.08800
Cu1416     Cu  0.65377699  0.02876484  0.12500661     0.44200
Cu1417     Cu  0.62511035  0.47032614  0.09613376     0.42000
Cu1418     Cu  0.59532562  0.00011243  0.15386310     0.43900
N1419       N  0.63547418  0.04334881  0.15854312    -0.34900
N1420       N  0.61341577  0.03364065  0.16834115    -0.29100
C1421       C  0.60588026  0.04836301  0.18907580    -0.05200
C1422       C  0.62435914  0.06793338  0.19272973     0.07000
C1423       C  0.64291429  0.06411864  0.17316940     0.00800
H1424       H  0.58855432  0.04473360  0.20092480     0.08500
H1425       H  0.66028037  0.07585534  0.16952242     0.07500
N1426       N  0.58120717  0.46635376  0.13588981    -0.36300
N1427       N  0.59135203  0.45620865  0.11410900    -0.28500
C1428       C  0.57684570  0.43537398  0.10669779    -0.03700
C1429       C  0.55700010  0.43199871  0.12500175     0.04900
C1430       C  0.56037428  0.45184580  0.14330379     0.03000
H1431       H  0.58079594  0.42327788  0.08957588     0.08100
H1432       H  0.54827919  0.45579525  0.16042678     0.06900
N1433       N  0.84135475  0.48839311  0.08168523    -0.27500
N1434       N  0.83165346  0.01045619  0.09147755    -0.35300
C1435       C  0.81088799  0.01790126  0.07684741     0.00900
C1436       C  0.80706846  0.99934459  0.05728999     0.06900
C1437       C  0.82663214  0.48086010  0.06094963    -0.06200
H1438       H  0.79915819  0.03527294  0.08048889     0.07600
H1439       H  0.83025688  0.46353196  0.04910363     0.08800
Cu1440     Cu  0.84624377  0.02876377  0.12500810     0.44200
Cu1441     Cu  0.87487819  0.47029597  0.09616683     0.42000
Cu1442     Cu  0.90470893  0.00012720  0.15385090     0.43900
N1443       N  0.86455274  0.04335556  0.15853730    -0.34900
N1444       N  0.88661583  0.03365360  0.16833045    -0.29100
C1445       C  0.89415059  0.04837738  0.18906445    -0.05200
C1446       C  0.87566694  0.06794248  0.19272246     0.07000
C1447       C  0.85710946  0.06412274  0.17316560     0.00800
H1448       H  0.91147857  0.04475152  0.20091139     0.08500
H1449       H  0.83973812  0.07585314  0.16952358     0.07500
N1450       N  0.91881305  0.46635462  0.13589121    -0.36300
N1451       N  0.90864917  0.45619068  0.11412826    -0.28500
C1452       C  0.92315012  0.43535076  0.10672118    -0.03700
C1453       C  0.94301247  0.43199214  0.12500958     0.04900
C1454       C  0.93965353  0.45185417  0.14329816     0.03000
H1455       H  0.91918619  0.42324114  0.08961241     0.08100
H1456       H  0.95176388  0.45581887  0.16040649     0.06900
N1457       N  0.88660020  0.21636094  0.16834628    -0.27500
N1458       N  0.86454680  0.20664758  0.15854189    -0.35300
C1459       C  0.85710491  0.18587868  0.17316867     0.00900
C1460       C  0.87565370  0.18206995  0.19273604     0.06900
C1461       C  0.89413049  0.20164294  0.18908577    -0.06200
H1462       H  0.83974225  0.17413824  0.16951715     0.07600
H1463       H  0.91145252  0.20527614  0.20093964     0.08800
Cu1464     Cu  0.84625198  0.22122349  0.12499750     0.44200
Cu1465     Cu  0.90469211  0.24988935  0.15386982     0.42000
Cu1466     Cu  0.87491272  0.27967170  0.09613820     0.43900
N1467       N  0.83167058  0.23952851  0.09146119    -0.34900
N1468       N  0.84138190  0.26158496  0.08166271    -0.29100
C1469       C  0.82665907  0.26912330  0.06092952    -0.05200
C1470       C  0.80708460  0.25064878  0.05727731     0.07000
C1471       C  0.81089774  0.23209272  0.07683660     0.00800
H1472       H  0.83029039  0.28644864  0.04908090     0.08500
H1473       H  0.79915808  0.21472894  0.08048388     0.07500
N1474       N  0.90866752  0.29379285  0.11411629    -0.36300
N1475       N  0.91881083  0.28364919  0.13589819    -0.28500
C1476       C  0.93964264  0.29815841  0.14331305    -0.03700
C1477       C  0.94301753  0.31800484  0.12501030     0.04900
C1478       C  0.92317331  0.31462803  0.10670526     0.03000
H1479       H  0.95173715  0.29420948  0.16043642     0.08100
H1480       H  0.91922462  0.32672222  0.08958225     0.06900
N1481       N  0.65866359  0.26161306  0.08167942    -0.27500
N1482       N  0.66836830  0.23955224  0.09147425    -0.35300
C1483       C  0.68913747  0.23211141  0.07684710     0.00900
C1484       C  0.69295531  0.25066794  0.05728929     0.06900
C1485       C  0.67338735  0.26914877  0.06094560    -0.06200
H1486       H  0.70086995  0.21474167  0.08048994     0.07600
H1487       H  0.66975923  0.28647512  0.04909756     0.08800
Cu1488     Cu  0.65377640  0.22124136  0.12500281     0.44200
Cu1489     Cu  0.62513423  0.27970267  0.09615576     0.42000
Cu1490     Cu  0.59531898  0.24988587  0.15385485     0.43900
N1491       N  0.63546527  0.20664766  0.15853058    -0.34900
N1492       N  0.61340543  0.21635379  0.16832719    -0.29100
C1493       C  0.60586841  0.20162931  0.18905979    -0.05200
C1494       C  0.62434733  0.18205935  0.19271362     0.07000
C1495       C  0.64290437  0.18587682  0.17315564     0.00800
H1496       H  0.58854272  0.20525853  0.20090912     0.08500
H1497       H  0.66027320  0.17414326  0.16951149     0.07500
N1498       N  0.58120996  0.28365303  0.13589083    -0.36300
N1499       N  0.59136646  0.29381004  0.11412114    -0.28500
C1500       C  0.57686248  0.31464696  0.10671196    -0.03700
C1501       C  0.55700608  0.31801105  0.12500605     0.04900
C1502       C  0.56037151  0.29815526  0.14330010     0.03000
H1503       H  0.58082108  0.32675149  0.08959820     0.08100
H1504       H  0.54826699  0.29419601  0.16041372     0.06900
N1505       N  0.59138015  0.48841959  0.41834635    -0.27500
N1506       N  0.58167583  0.01048105  0.40855301    -0.35300
C1507       C  0.56090685  0.01792184  0.42318055     0.00900
C1508       C  0.55708784  0.99936369  0.44273664     0.06900
C1509       C  0.57665568  0.48088273  0.43907912    -0.06200
H1510       H  0.54917334  0.03529040  0.41953688     0.07600
H1511       H  0.58028093  0.46355340  0.45092393     0.08800
Cu1512     Cu  0.59626319  0.02878815  0.37502083     0.44200
Cu1513     Cu  0.62490428  0.47032535  0.40386405     0.42000
Cu1514     Cu  0.65471366  0.00013664  0.34615977     0.43900
N1515       N  0.61456374  0.04337216  0.34148341    -0.34900
N1516       N  0.63662167  0.03366463  0.33168370    -0.29100
C1517       C  0.64415229  0.04838399  0.31094512    -0.05200
C1518       C  0.62567089  0.06795169  0.30729062     0.07000
C1519       C  0.60711927  0.06413843  0.32685454     0.00800
H1520       H  0.66147599  0.04475349  0.29909307     0.08500
H1521       H  0.58975149  0.07587296  0.33050105     0.07500
N1522       N  0.66882129  0.46636719  0.36412157    -0.36300
N1523       N  0.65866566  0.45621123  0.38589222    -0.28500
C1524       C  0.67316640  0.43537120  0.39329852    -0.03700
C1525       C  0.69301988  0.43200403  0.37500182     0.04900
C1526       C  0.68965595  0.45186119  0.35670905     0.03000
H1527       H  0.66920827  0.42326729  0.41041294     0.08100
H1528       H  0.70175960  0.45581923  0.33959415     0.06900
N1529       N  0.90866715  0.48839671  0.41833272    -0.27500
N1530       N  0.91837758  0.01045160  0.40852866    -0.35300
C1531       C  0.93914571  0.01789568  0.42315592     0.00900
C1532       C  0.94295690  0.99934714  0.44272258     0.06900
C1533       C  0.92338604  0.48086800  0.43907235    -0.06200
H1534       H  0.95088283  0.03526077  0.41950620     0.07600
H1535       H  0.91975359  0.46354685  0.45092687     0.08800
Cu1536     Cu  0.90379606  0.02874942  0.37498861     0.44200
Cu1537     Cu  0.87513752  0.47030379  0.40385870     0.42000
Cu1538     Cu  0.84533452  0.00010625  0.34614702     0.43900
N1539       N  0.88548481  0.04333909  0.34145959    -0.34900
N1540       N  0.86342263  0.03363409  0.33166718    -0.29100
C1541       C  0.85588215  0.04835926  0.31093649    -0.05200
C1542       C  0.87436131  0.06792869  0.30727959     0.07000
C1543       C  0.89292195  0.06411009  0.32683372     0.00800
H1544       H  0.83855265  0.04473236  0.29909212     0.08500
H1545       H  0.91029073  0.07584452  0.33047625     0.07500
N1546       N  0.83121880  0.46634622  0.36411848    -0.36300
N1547       N  0.84137013  0.45619384  0.38589266    -0.28500
C1548       C  0.82686212  0.43536016  0.39330434    -0.03700
C1549       C  0.80700862  0.43199376  0.37500730     0.04900
C1550       C  0.81038010  0.45184464  0.35670920     0.03000
H1551       H  0.83081639  0.42325885  0.41042130     0.08100
H1552       H  0.79827963  0.45580082  0.33959158     0.06900
N1553       N  0.90863682  0.26159348  0.41835008    -0.27500
N1554       N  0.91834380  0.23953406  0.40855404    -0.35300
C1555       C  0.93911693  0.23209761  0.42317757     0.00900
C1556       C  0.94293518  0.25065587  0.44273380     0.06900
C1557       C  0.92336303  0.26913274  0.43908076    -0.06200
H1558       H  0.95085288  0.21473097  0.41953208     0.07600
H1559       H  0.91973518  0.28646013  0.45092769     0.08800
Cu1560     Cu  0.90375415  0.22122230  0.37502459     0.44200
Cu1561     Cu  0.87510630  0.27968126  0.40387460     0.42000
Cu1562     Cu  0.84531240  0.24988158  0.34615587     0.43900
N1563       N  0.88545196  0.20663557  0.34148848    -0.34900
N1564       N  0.86339738  0.21634716  0.33168556    -0.29100
C1565       C  0.85586488  0.20162676  0.31094836    -0.05200
C1566       C  0.87434168  0.18205404  0.30729782     0.07000
C1567       C  0.89289256  0.18586532  0.32686288     0.00800
H1568       H  0.83854365  0.20526044  0.29909390     0.08500
H1569       H  0.91025763  0.17412791  0.33051141     0.07500
N1570       N  0.83120087  0.28364801  0.36412039    -0.36300
N1571       N  0.84134884  0.29379787  0.38589744    -0.28500
C1572       C  0.82684517  0.31463550  0.39330500    -0.03700
C1573       C  0.80699778  0.31800758  0.37500268     0.04900
C1574       C  0.81036836  0.29815571  0.35670516     0.03000
H1575       H  0.83079766  0.32673488  0.41042394     0.08100
H1576       H  0.79827034  0.29420201  0.33958540     0.06900
N1577       N  0.63659230  0.21637676  0.33165252    -0.27500
N1578       N  0.61453579  0.20666672  0.34145303    -0.35300
C1579       C  0.60709784  0.18589398  0.32682982     0.00900
C1580       C  0.62565256  0.18207927  0.30726915     0.06900
C1581       C  0.64412861  0.20165292  0.31091917    -0.06200
H1582       H  0.58973366  0.17415543  0.33047915     0.07600
H1583       H  0.66145339  0.20528303  0.29906885     0.08800
Cu1584     Cu  0.59623102  0.22125197  0.37498800     0.44200
Cu1585     Cu  0.65468042  0.24990771  0.34612645     0.42000
Cu1586     Cu  0.62488009  0.27970683  0.40384144     0.43900
N1587       N  0.58164586  0.23955579  0.40852359    -0.34900
N1588       N  0.59135279  0.26161499  0.41832030    -0.29100
C1589       C  0.57663234  0.26914829  0.43905721    -0.05200
C1590       C  0.55706444  0.25066756  0.44271403     0.07000
C1591       C  0.56087864  0.23211329  0.42315305     0.00800
H1592       H  0.58026221  0.28647370  0.45090667     0.08500
H1593       H  0.54914432  0.21474519  0.41950897     0.07500
N1594       N  0.65864508  0.29381857  0.38587376    -0.36300
N1595       N  0.66879619  0.28366815  0.36409842    -0.28500
C1596       C  0.68963490  0.29817072  0.35669019    -0.03700
C1597       C  0.69300629  0.31801976  0.37499068     0.04900
C1598       C  0.67315290  0.31465136  0.39328738     0.03000
H1599       H  0.70173605  0.29421568  0.33957294     0.08100
H1600       H  0.66919912  0.32675033  0.41040650     0.06900
O1601       O  0.52770885  0.40307648  0.14694224    -0.73100
O1602       O  0.97231177  0.34692730  0.14694713    -0.74100
O1603       O  0.52770960  0.34692886  0.14694415    -0.62700
O1604       O  0.97231125  0.40307533  0.14694601    -0.71100
O1605       O  0.97193138  0.40269670  0.10307046    -0.70700
O1606       O  0.52808503  0.34730493  0.10306855    -0.61900
O1607       O  0.97193652  0.34730011  0.10307157    -0.74400
O1608       O  0.52808020  0.40270154  0.10306663    -0.73200
Cu1609     Cu  0.50001048  0.37500202  0.14848698     1.04600
Cu1610     Cu  0.50000821  0.37500075  0.10152719     1.04300
C1611       C  0.53664688  0.41164252  0.12500365     0.93100
C1612       C  0.96337158  0.33836035  0.12500982     0.92200
C1613       C  0.53665050  0.33836443  0.12500620     0.84400
C1614       C  0.96336799  0.41163843  0.12500861     0.90600
O1615       O  0.77808430  0.40269987  0.39694241    -0.73100
O1616       O  0.72192919  0.34730873  0.39693331    -0.74100
O1617       O  0.77807787  0.34730335  0.39693841    -0.62700
O1618       O  0.72193549  0.40270473  0.39693812    -0.71100
O1619       O  0.72231431  0.40308401  0.35306264    -0.70700
O1620       O  0.77770642  0.34693036  0.35306279    -0.61900
O1621       O  0.72230821  0.34693654  0.35305776    -0.74400
O1622       O  0.77771192  0.40307803  0.35306687    -0.73200
Cu1623     Cu  0.75000655  0.37500401  0.39848015     1.04600
Cu1624     Cu  0.75001037  0.37500730  0.35152039     1.04300
C1625       C  0.78665200  0.41164094  0.37500573     0.93100
C1626       C  0.71336444  0.33837103  0.37499411     0.92200
C1627       C  0.78664443  0.33836339  0.37500094     0.84400
C1628       C  0.71337283  0.41164798  0.37500061     0.90600
O1629       O  0.77771437  0.09693291  0.64694157    -0.73100
O1630       O  0.72231178  0.15307378  0.64693853    -0.74100
O1631       O  0.72231716  0.09692646  0.64694106    -0.62700
O1632       O  0.77770878  0.15307987  0.64693784    -0.71100
O1633       O  0.77808658  0.15270053  0.60306229    -0.70700
O1634       O  0.72193993  0.09730189  0.60306544    -0.61900
O1635       O  0.72193721  0.15269854  0.60306297    -0.74400
O1636       O  0.77808882  0.09730348  0.60306592    -0.73200
Cu1637     Cu  0.75001302  0.12500331  0.64848165     1.04600
Cu1638     Cu  0.75001315  0.12500098  0.60152184     1.04300
C1639       C  0.78665519  0.08836604  0.62500460     0.93100
C1640       C  0.71337091  0.16163836  0.62500079     0.92200
C1641       C  0.71337632  0.08836072  0.62500363     0.84400
C1642       C  0.78665002  0.16164361  0.62499973     0.90600
O1643       O  0.97193953  0.15270101  0.89694594    -0.73100
O1644       O  0.52808565  0.09730208  0.89694635    -0.74100
O1645       O  0.52808856  0.15269929  0.89694773    -0.62700
O1646       O  0.97193664  0.09730446  0.89694339    -0.71100
O1647       O  0.97231497  0.09693027  0.85306785    -0.70700
O1648       O  0.52771389  0.15307611  0.85307218    -0.61900
O1649       O  0.52771247  0.09692867  0.85307076    -0.74400
O1650       O  0.97231700  0.15307769  0.85307036    -0.73200
Cu1651     Cu  0.50001256  0.12500165  0.89848810     1.04600
Cu1652     Cu  0.50001468  0.12500319  0.85152833     1.04300
C1653       C  0.96337576  0.16164248  0.87500807     0.93100
C1654       C  0.53665163  0.08836219  0.87500852     0.92200
C1655       C  0.53665422  0.16164056  0.87501026     0.84400
C1656       C  0.96337242  0.08836492  0.87500472     0.90600
O1657       O  0.85351533  0.84735507  0.77869536    -0.73100
O1658       O  0.85285146  0.90320262  0.72266773    -0.74100
O1659       O  0.85284376  0.84681859  0.72265719    -0.62700
O1660       O  0.85352071  0.90264339  0.77870601    -0.71100
O1661       O  0.89717344  0.90318795  0.77735525    -0.70700
O1662       O  0.89649668  0.84736048  0.72130959    -0.61900
O1663       O  0.89650412  0.90264774  0.72131803    -0.74400
O1664       O  0.89716805  0.84680502  0.77734667    -0.73200
Cu1665     Cu  0.85164762  0.87500506  0.75063691     1.04600
Cu1666     Cu  0.89837029  0.87500006  0.74937705     1.04300
C1667       C  0.87547541  0.83830517  0.78681031     0.93100
C1668       C  0.87454516  0.91170017  0.71320369     0.92200
C1669       C  0.87453497  0.83831752  0.71319118     0.84400
C1670       C  0.87548239  0.91168788  0.78682261     0.90600
O1671       O  0.60352199  0.90264206  0.72130539    -0.73100
O1672       O  0.60284385  0.84681506  0.77735320    -0.74100
O1673       O  0.60285090  0.90319890  0.77734380    -0.62700
O1674       O  0.60351355  0.84735360  0.72131492    -0.71100
O1675       O  0.64716627  0.84680026  0.72266376    -0.70700
O1676       O  0.64650362  0.90264571  0.77869203    -0.61900
O1677       O  0.64649676  0.84735836  0.77870099    -0.74400
O1678       O  0.64717485  0.90318346  0.72265455    -0.73200
Cu1679     Cu  0.60164745  0.87500261  0.74937397     1.04600
Cu1680     Cu  0.64837014  0.87499678  0.75063316     1.04300
C1681       C  0.62548429  0.91168479  0.71318783     0.93100
C1682       C  0.62453535  0.83831474  0.78681925     0.92200
C1683       C  0.62454431  0.91169704  0.78680749     0.84400
C1684       C  0.62547294  0.83830181  0.71320016     0.90600
O1685       O  0.97236821  0.77149848  0.52870036    -0.73100
O1686       O  0.52819602  0.77217037  0.47265347    -0.74100
O1687       O  0.97181131  0.77216600  0.47266242    -0.62700
O1688       O  0.52765722  0.77150177  0.52869199    -0.71100
O1689       O  0.52820707  0.72784986  0.52734336    -0.70700
O1690       O  0.97236250  0.72851403  0.47131559    -0.61900
O1691       O  0.52765090  0.72851843  0.47130574    -0.74400
O1692       O  0.97182338  0.72784649  0.52735259    -0.73200
Cu1693     Cu  0.50000815  0.77336926  0.50063235     1.04600
Cu1694     Cu  0.50001114  0.72664747  0.49937401     1.04300
C1695       C  0.96332340  0.74953779  0.53681839     0.93100
C1696       C  0.53669535  0.75047905  0.46318708     0.92200
C1697       C  0.96331173  0.75047288  0.46319991     0.84400
C1698       C  0.53670663  0.74954207  0.53680746     0.90600
N1699       N  0.90866256  0.73840134  0.58168084    -0.27500
N1700       N  0.91836753  0.76046141  0.59147734    -0.35300
C1701       C  0.93913601  0.76790418  0.57684988     0.00900
C1702       C  0.94295296  0.74934934  0.55729018     0.06900
C1703       C  0.92338532  0.73086781  0.56094563    -0.06200
H1704       H  0.95086875  0.78527353  0.58049401     0.07600
H1705       H  0.91975699  0.71354241  0.54909642     0.08800
Cu1706     Cu  0.90377612  0.77876798  0.62500814     0.44200
Cu1707     Cu  0.87513419  0.72030925  0.59615658     0.42000
Cu1708     Cu  0.84530960  0.75012957  0.65384910     0.43900
N1709       N  0.88546318  0.79336069  0.65853487    -0.34900
N1710       N  0.86339978  0.78365805  0.66832721    -0.29100
C1711       C  0.85586305  0.79838213  0.68906031    -0.05200
C1712       C  0.87434599  0.81794800  0.69271869     0.07000
C1713       C  0.89290472  0.81412863  0.67316285     0.00800
H1714       H  0.83853485  0.79475544  0.70090680     0.08500
H1715       H  0.91027643  0.82585926  0.66952188     0.07500
N1716       N  0.83120359  0.71636081  0.63588461    -0.36300
N1717       N  0.84136414  0.70620187  0.61411767    -0.28500
C1718       C  0.82686239  0.68536325  0.60670843    -0.03700
C1719       C  0.80700323  0.68200007  0.62499964     0.04900
C1720       C  0.81036474  0.70185805  0.64329204     0.03000
H1721       H  0.83082462  0.67325655  0.58959680     0.08100
H1722       H  0.79825731  0.70581813  0.66040359     0.06900
N1723       N  0.59136847  0.73840456  0.58166827    -0.27500
N1724       N  0.58166248  0.76046324  0.59146675    -0.35300
C1725       C  0.56089573  0.76790781  0.57683800     0.00900
C1726       C  0.55708066  0.74935537  0.55727561     0.06900
C1727       C  0.57664776  0.73087348  0.56093064    -0.06200
H1728       H  0.54916067  0.78527460  0.58048512     0.07600
H1729       H  0.58027521  0.71354789  0.54908143     0.08800
Cu1730     Cu  0.59624468  0.77876137  0.62500641     0.44200
Cu1731     Cu  0.62489225  0.72030788  0.59614872     0.42000
Cu1732     Cu  0.65469252  0.75010547  0.65386638     0.43900
N1733       N  0.61454459  0.79334240  0.65854563    -0.34900
N1734       N  0.63660144  0.78363311  0.66834547    -0.29100
C1735       C  0.64413537  0.79835464  0.68908152    -0.05200
C1736       C  0.62565729  0.81792608  0.69273370     0.07000
C1737       C  0.60710406  0.81411231  0.67317157     0.00800
H1738       H  0.66146016  0.79472503  0.70093137     0.08500
H1739       H  0.58973953  0.82585024  0.66952258     0.07500
N1740       N  0.66880722  0.71634506  0.63589255    -0.36300
N1741       N  0.65865579  0.70619458  0.61411737    -0.28500
C1742       C  0.67316228  0.68536062  0.60670436    -0.03700
C1743       C  0.69301511  0.68199157  0.62500125     0.04900
C1744       C  0.68964475  0.70184137  0.64330111     0.03000
H1745       H  0.66920770  0.67326114  0.58958586     0.08100
H1746       H  0.70174545  0.70579557  0.66041872     0.06900
O1747       O  0.52766189  0.52150515  0.47132021    -0.73100
O1748       O  0.97181851  0.52216351  0.52735073    -0.74100
O1749       O  0.52820212  0.52216962  0.52735774    -0.62700
O1750       O  0.97237250  0.52149781  0.47131234    -0.71100
O1751       O  0.97182835  0.97784595  0.47265967    -0.70700
O1752       O  0.52765874  0.97851809  0.52870132    -0.61900
O1753       O  0.97237097  0.97851164  0.52869729    -0.74400
O1754       O  0.52821263  0.97785339  0.47266459    -0.73200
Cu1755     Cu  0.50001345  0.52336910  0.49938000     1.04600
Cu1756     Cu  0.50001781  0.97664748  0.50063582     1.04300
C1757       C  0.53671241  0.49954674  0.46320285     0.93100
C1758       C  0.96331999  0.00047011  0.53681403     0.92200
C1759       C  0.53670217  0.00047848  0.53682130     0.84400
C1760       C  0.96332777  0.49953680  0.46319478     0.90600
N1761       N  0.63662782  0.96634132  0.66832236    -0.27500
N1762       N  0.61456857  0.95663555  0.65852401    -0.35300
C1763       C  0.60712331  0.93586917  0.67315255     0.00900
C1764       C  0.62567574  0.93205389  0.69271500     0.06900
C1765       C  0.64415854  0.95162067  0.68906000    -0.06200
H1766       H  0.58975411  0.92413644  0.66950706     0.07600
H1767       H  0.66148279  0.95524980  0.70091116     0.08800
Cu1768     Cu  0.59626453  0.97122470  0.62499120     0.44200
Cu1769     Cu  0.65472044  0.99986941  0.65384560     0.42000
Cu1770     Cu  0.62489394  0.52969801  0.59615837     0.43900
N1771       N  0.58166599  0.98954222  0.59146997    -0.34900
N1772       N  0.59136641  0.51160736  0.58168121    -0.29100
C1773       C  0.57663929  0.51914716  0.56095172    -0.05200
C1774       C  0.55707299  0.00066500  0.55729226     0.07000
C1775       C  0.56089634  0.98210233  0.57684312     0.00800
H1776       H  0.58026337  0.53647789  0.54910886     0.08500
H1777       H  0.54916770  0.96472917  0.58048128     0.07500
N1778       N  0.65866298  0.54380354  0.61412111    -0.36300
N1779       N  0.66882510  0.53364175  0.63588579    -0.28500
C1780       C  0.68966364  0.54814457  0.64329414    -0.03700
C1781       C  0.69302308  0.56800539  0.62500441     0.04900
C1782       C  0.67316316  0.56464391  0.60671400     0.03000
H1783       H  0.70177252  0.54418225  0.66040402     0.08100
H1784       H  0.66919963  0.57675238  0.58960436     0.06900
N1785       N  0.90865482  0.51159632  0.58167238    -0.27500
N1786       N  0.91836513  0.98954099  0.59147322    -0.35300
C1787       C  0.93913561  0.98210162  0.57684671     0.00900
C1788       C  0.94294647  0.00065358  0.55728281     0.06900
C1789       C  0.92337521  0.51913010  0.56093555    -0.06200
H1790       H  0.95087509  0.96473838  0.58049568     0.07600
H1791       H  0.91974289  0.53645303  0.54908380     0.08800
Cu1792     Cu  0.90378448  0.97124144  0.62501366     0.44200
Cu1793     Cu  0.87512472  0.52968512  0.59614704     0.42000
Cu1794     Cu  0.84534443  0.99990992  0.65388330     0.43900
N1795       N  0.88548122  0.95666123  0.65855236    -0.34900
N1796       N  0.86342804  0.96637591  0.66835565    -0.29100
C1797       C  0.85589077  0.95165354  0.68908978    -0.05200
C1798       C  0.87436280  0.93207594  0.69273757     0.07000
C1799       C  0.89291618  0.93588695  0.67317472     0.00800
H1800       H  0.83856794  0.95528719  0.70094197     0.08500
H1801       H  0.91027751  0.92414496  0.66952350     0.07500
N1802       N  0.83122463  0.53366516  0.63590494    -0.36300
N1803       N  0.84136725  0.54380554  0.61412095    -0.28500
C1804       C  0.82685799  0.56463621  0.60670434    -0.03700
C1805       C  0.80701242  0.56801364  0.62500795     0.04900
C1806       C  0.81039013  0.54817224  0.64331551     0.03000
H1807       H  0.83080570  0.57672752  0.58957884     0.08100
H1808       H  0.79829557  0.54422515  0.66043952     0.06900
O1809       O  0.72182816  0.77217113  0.02735335    -0.73100
O1810       O  0.77765924  0.77149602  0.97130992    -0.74100
O1811       O  0.72237021  0.77150418  0.97131532    -0.62700
O1812       O  0.77821277  0.77216107  0.02734772    -0.71100
O1813       O  0.77765695  0.72850918  0.02869373    -0.70700
O1814       O  0.72181714  0.72785227  0.97266193    -0.61900
O1815       O  0.77820061  0.72784400  0.97265677    -0.74400
O1816       O  0.72236892  0.72851907  0.02869874    -0.73200
Cu1817     Cu  0.75001787  0.77336825  0.99937636     1.04600
Cu1818     Cu  0.75001063  0.72664640  0.00063299     1.04300
C1819       C  0.71332576  0.75048004  0.03681762     0.93100
C1820       C  0.78670276  0.74953491  0.96319189     0.92200
C1821       C  0.71331932  0.74954536  0.96319883     0.84400
C1822       C  0.78670931  0.75046703  0.03681045     0.90600
N1823       N  0.88661172  0.78364147  0.83166846    -0.27500
N1824       N  0.86454948  0.79334395  0.84146321    -0.35300
C1825       C  0.85710566  0.81411105  0.82683536     0.00900
C1826       C  0.87566187  0.81793018  0.80727714     0.06900
C1827       C  0.89414555  0.79836499  0.81093395    -0.06200
H1828       H  0.83973600  0.82584313  0.83047988     0.07600
H1829       H  0.91147427  0.79474031  0.79908746     0.08800
Cu1830     Cu  0.84624485  0.77875600  0.87499633     0.44200
Cu1831     Cu  0.90470736  0.75011797  0.84615068     0.42000
Cu1832     Cu  0.87489099  0.72030354  0.90385339     0.43900
N1833       N  0.83165778  0.76045476  0.90853172    -0.34900
N1834       N  0.84136340  0.73839591  0.91833000    -0.29100
C1835       C  0.82664150  0.73086417  0.93906646    -0.05200
C1836       C  0.80707391  0.74934555  0.94272090     0.07000
C1837       C  0.81089001  0.76789859  0.92315937     0.00800
H1838       H  0.83026985  0.71353929  0.95091688     0.08500
H1839       H  0.79915636  0.78526670  0.91951335     0.07500
N1840       N  0.90866043  0.70619770  0.88589009    -0.36300
N1841       N  0.91881803  0.71635420  0.86412062    -0.28500
C1842       C  0.93965721  0.70185205  0.85671327    -0.03700
C1843       C  0.94302186  0.68199700  0.87500811     0.04900
C1844       C  0.92316438  0.68536131  0.89330087     0.03000
H1845       H  0.95176217  0.70581012  0.83959961     0.08100
H1846       H  0.91920456  0.67325682  0.91041424     0.06900
N1847       N  0.65865497  0.73841186  0.91834082    -0.27500
N1848       N  0.66836080  0.76047112  0.90854335    -0.35300
C1849       C  0.68912911  0.76791422  0.92317075     0.00900
C1850       C  0.69294496  0.74936035  0.94273135     0.06900
C1851       C  0.67337694  0.73087917  0.93907670    -0.06200
H1852       H  0.70086376  0.78528156  0.91952448     0.07600
H1853       H  0.66974964  0.71355310  0.95092504     0.08800
Cu1854     Cu  0.65377499  0.77877367  0.87500821     0.44200
Cu1855     Cu  0.62512987  0.72031584  0.90386257     0.42000
Cu1856     Cu  0.59531870  0.75012262  0.84615863     0.43900
N1857       N  0.63546539  0.79336080  0.84147735    -0.34900
N1858       N  0.61340548  0.78365351  0.83168208    -0.29100
C1859       C  0.60586848  0.79837579  0.81094788    -0.05200
C1860       C  0.62434764  0.81794549  0.80729184     0.07000
C1861       C  0.64290464  0.81413015  0.82685010     0.00800
H1862       H  0.58854260  0.79474549  0.79909948     0.08500
H1863       H  0.66027315  0.82586436  0.83049325     0.07500
N1864       N  0.58121046  0.71635541  0.86412433    -0.36300
N1865       N  0.59136593  0.70620133  0.88589577    -0.28500
C1866       C  0.57686322  0.68536360  0.89330565    -0.03700
C1867       C  0.55700870  0.68199582  0.87501037     0.04900
C1868       C  0.56037403  0.70185040  0.85671483     0.03000
H1869       H  0.58082135  0.67326098  0.91042115     0.08100
H1870       H  0.54827028  0.70580722  0.83959996     0.06900
O1871       O  0.85284914  0.59680115  0.27735159    -0.73100
O1872       O  0.85350835  0.65264396  0.22131967    -0.74100
O1873       O  0.85351623  0.59735546  0.22131354    -0.62700
O1874       O  0.85283985  0.65318446  0.27735840    -0.71100
O1875       O  0.89649267  0.65264199  0.27870693    -0.70700
O1876       O  0.89716921  0.59681540  0.22265911    -0.61900
O1877       O  0.89716105  0.65319866  0.22266888    -0.74400
O1878       O  0.89650201  0.59735484  0.27869636    -0.73200
Cu1879     Cu  0.85164332  0.62499604  0.24938048     1.04600
Cu1880     Cu  0.89836604  0.62500308  0.25063805     1.04300
C1881       C  0.87454343  0.58830345  0.28681351     0.93100
C1882       C  0.87546776  0.66169578  0.21320457     0.92200
C1883       C  0.87547788  0.58831286  0.21319456     0.84400
C1884       C  0.87453097  0.66168497  0.28682521     0.90600
O1885       O  0.77820667  0.52216277  0.97266204    -0.73100
O1886       O  0.72236493  0.52149899  0.02869386    -0.74100
O1887       O  0.77765409  0.52149488  0.02869986    -0.62700
O1888       O  0.72182282  0.52216488  0.97265612    -0.71100
O1889       O  0.72236975  0.97851338  0.97130741    -0.70700
O1890       O  0.77819595  0.97784246  0.02735410    -0.61900
O1891       O  0.72181160  0.97784734  0.02734484    -0.74400
O1892       O  0.77765781  0.97851045  0.97131689    -0.73200
Cu1893     Cu  0.75001223  0.52336538  0.00063328     1.04600
Cu1894     Cu  0.75000865  0.97664356  0.99937564     1.04300
C1895       C  0.78670666  0.50047009  0.96319950     0.93100
C1896       C  0.71331392  0.49953986  0.03680906     0.92200
C1897       C  0.78669806  0.49953410  0.03681860     0.84400
C1898       C  0.71332435  0.00047355  0.96318942     0.90600
N1899       N  0.61341975  0.96636634  0.83166252    -0.27500
N1900       N  0.63547892  0.95665864  0.84145899    -0.35300
C1901       C  0.64291728  0.93588797  0.82683324     0.00900
C1902       C  0.62436061  0.93207198  0.80727476     0.06900
C1903       C  0.60588244  0.95164284  0.81092918    -0.06200
H1904       H  0.66028400  0.92415183  0.83047902     0.07600
H1905       H  0.58855555  0.95527159  0.79908143     0.08800
Cu1906     Cu  0.65378714  0.97124502  0.87499165     0.44200
Cu1907     Cu  0.59533090  0.99989523  0.84614147     0.42000
Cu1908     Cu  0.62512646  0.52968824  0.90386109     0.43900
N1909       N  0.66837194  0.98954785  0.90852812    -0.34900
N1910       N  0.65865934  0.51160151  0.91833159    -0.29100
C1911       C  0.67338002  0.51913506  0.93906809    -0.05200
C1912       C  0.69295444  0.00066051  0.94271737     0.07000
C1913       C  0.68914325  0.98210887  0.92315325     0.00800
H1914       H  0.66974644  0.53645673  0.95092152     0.08500
H1915       H  0.70088199  0.96474487  0.91950434     0.07500
N1916       N  0.59136248  0.54380130  0.88589384    -0.36300
N1917       N  0.58121337  0.53365344  0.86411634    -0.28500
C1918       C  0.56037740  0.54815870  0.85670667    -0.03700
C1919       C  0.55700567  0.56800685  0.87500805     0.04900
C1920       C  0.57685600  0.56463504  0.89330721     0.03000
H1921       H  0.54827881  0.54420695  0.83958658     0.08100
H1922       H  0.58080953  0.57673317  0.91042695     0.06900
N1923       N  0.88661820  0.96635052  0.83168203    -0.27500
N1924       N  0.86456394  0.95663874  0.84148602    -0.35300
C1925       C  0.85712228  0.93586882  0.82686067     0.00900
C1926       C  0.87567214  0.93205768  0.80729468     0.06900
C1927       C  0.89414932  0.95163047  0.81094411    -0.06200
H1928       H  0.83975743  0.92413105  0.83051054     0.07600
H1929       H  0.91147027  0.95526391  0.79908905     0.08800
Cu1930     Cu  0.84626346  0.97122323  0.87502334     0.44200
Cu1931     Cu  0.90470561  0.99988384  0.84615276     0.42000
Cu1932     Cu  0.87489294  0.52969702  0.90385526     0.43900
N1933       N  0.83167088  0.98953547  0.90855037    -0.34900
N1934       N  0.84136995  0.51160161  0.91833870    -0.29100
C1935       C  0.82664421  0.51913966  0.93907019    -0.05200
C1936       C  0.80708091  0.00065456  0.94273179     0.07000
C1937       C  0.81090347  0.98209329  0.92317943     0.00800
H1938       H  0.83026690  0.53647123  0.95091230     0.08500
H1939       H  0.79917398  0.96472087  0.91953999     0.07500
N1940       N  0.90865747  0.54380840  0.88588743    -0.36300
N1941       N  0.91881361  0.53365289  0.86411686    -0.28500
C1942       C  0.93965153  0.54815649  0.85670805    -0.03700
C1943       C  0.94301693  0.56801142  0.87500332     0.04900
C1944       C  0.92316091  0.56464549  0.89329743     0.03000
H1945       H  0.95175639  0.54419820  0.83959426     0.08100
H1946       H  0.91920264  0.57674850  0.91041252     0.06900
O1947       O  0.64650276  0.59735908  0.22131220    -0.73100
O1948       O  0.64716353  0.65320445  0.27734033    -0.74100
O1949       O  0.64717217  0.59682122  0.27734998    -0.62700
O1950       O  0.64649595  0.65264617  0.22130311    -0.71100
O1951       O  0.60284300  0.65318845  0.22265041    -0.70700
O1952       O  0.60351926  0.59736245  0.27869868    -0.61900
O1953       O  0.60351068  0.65265035  0.27868810    -0.74400
O1954       O  0.60285004  0.59680553  0.22266054    -0.73200
Cu1955     Cu  0.64836849  0.62500786  0.24937115     1.04600
Cu1956     Cu  0.60164572  0.62500135  0.25062975     1.04300
C1957       C  0.62454343  0.58830784  0.21319671     0.93100
C1958       C  0.62546969  0.66170264  0.28680307     0.92200
C1959       C  0.62548127  0.58832005  0.28681670     0.84400
C1960       C  0.62453458  0.66168925  0.21318460     0.85800
N1961       N  0.65864158  0.98841427  0.08166046    -0.27500
N1962       N  0.66835593  0.51046667  0.09146531    -0.35300
C1963       C  0.68912816  0.51790566  0.07684119     0.00900
C1964       C  0.69293861  0.49935539  0.05727588     0.06900
C1965       C  0.67336227  0.98088134  0.06092350    -0.06200
H1966       H  0.70086949  0.53526721  0.08049320     0.07600
H1967       H  0.66972898  0.96355975  0.04906997     0.08800
Cu1968     Cu  0.65377646  0.52876488  0.12500621     0.44200
Cu1969     Cu  0.62511014  0.97032586  0.09613355     0.42000
Cu1970     Cu  0.59532492  0.50011249  0.15386361     0.43900
N1971       N  0.63547364  0.54334891  0.15854258    -0.34900
N1972       N  0.61341520  0.53364090  0.16834080    -0.29100
C1973       C  0.60588006  0.54836331  0.18907548    -0.05200
C1974       C  0.62435900  0.56793362  0.19272915     0.07000
C1975       C  0.64291395  0.56411869  0.17316875     0.00800
H1976       H  0.58855384  0.54473431  0.20092440     0.08500
H1977       H  0.66028021  0.57585528  0.16952161     0.07500
N1978       N  0.58120686  0.96635405  0.13588941    -0.36300
N1979       N  0.59135152  0.95620881  0.11410864    -0.28500
C1980       C  0.57684498  0.93537418  0.10669745    -0.03700
C1981       C  0.55699923  0.93199928  0.12500144     0.04900
C1982       C  0.56037376  0.95184639  0.14330334     0.03000
H1983       H  0.58079509  0.92327820  0.08957585     0.08100
H1984       H  0.54827871  0.95579615  0.16042646     0.06900
N1985       N  0.84135447  0.98839269  0.08168493    -0.27500
N1986       N  0.83165362  0.51045650  0.09147788    -0.35300
C1987       C  0.81088822  0.51790172  0.07684771     0.00900
C1988       C  0.80706876  0.49934531  0.05729018     0.06900
C1989       C  0.82663176  0.98085944  0.06094955    -0.06200
H1990       H  0.79915841  0.53527353  0.08048935     0.07600
H1991       H  0.83025689  0.96353115  0.04910316     0.08800
Cu1992     Cu  0.84624360  0.52876389  0.12500854     0.44200
Cu1993     Cu  0.87487781  0.97029587  0.09616699     0.42000
Cu1994     Cu  0.90470876  0.50012708  0.15385073     0.43900
N1995       N  0.86455262  0.54335554  0.15853765    -0.34900
N1996       N  0.88661573  0.53365351  0.16833064    -0.29100
C1997       C  0.89415060  0.54837711  0.18906481    -0.05200
C1998       C  0.87566685  0.56794217  0.19272301     0.07000
C1999       C  0.85710936  0.56412254  0.17316614     0.00800
H2000       H  0.91147863  0.54475139  0.20091134     0.08500
H2001       H  0.83973795  0.57585299  0.16952417     0.07500
N2002       N  0.91881299  0.96635481  0.13589114    -0.36300
N2003       N  0.90864892  0.95619087  0.11412824    -0.28500
C2004       C  0.92314969  0.93535096  0.10672100    -0.03700
C2005       C  0.94301214  0.93199222  0.12500919     0.04900
C2006       C  0.93965339  0.95185418  0.14329791     0.03000
H2007       H  0.91918543  0.92324132  0.08961205     0.08100
H2008       H  0.95176397  0.95581871  0.16040612     0.06900
N2009       N  0.88659981  0.71636050  0.16834660    -0.27500
N2010       N  0.86454604  0.70664762  0.15854265    -0.35300
C2011       C  0.85710393  0.68587899  0.17316974     0.00900
C2012       C  0.87565302  0.68206985  0.19273676     0.06900
C2013       C  0.89413018  0.70164243  0.18908611    -0.06200
H2014       H  0.83974123  0.67413874  0.16951832     0.07600
H2015       H  0.91145247  0.70527512  0.20093951     0.08800
Cu2016     Cu  0.84625119  0.72122356  0.12499829     0.44200
Cu2017     Cu  0.90469229  0.74988847  0.15386942     0.42000
Cu2018     Cu  0.87491222  0.77967139  0.09613821     0.43900
N2019       N  0.83166992  0.73952824  0.09146168    -0.34900
N2020       N  0.84138147  0.76158447  0.08166287    -0.29100
C2021       C  0.82665876  0.76912263  0.06092958    -0.05200
C2022       C  0.80708418  0.75064821  0.05727749     0.07000
C2023       C  0.81089713  0.73209231  0.07683702     0.00800
H2024       H  0.83029037  0.78644781  0.04908064     0.08500
H2025       H  0.79915706  0.71472896  0.08048478     0.07500
N2026       N  0.90866727  0.79379238  0.11411581    -0.36300
N2027       N  0.91881090  0.78364843  0.13589749    -0.28500
C2028       C  0.93964265  0.79815783  0.14331236    -0.03700
C2029       C  0.94301720  0.81800454  0.12500977     0.04900
C2030       C  0.92317298  0.81462755  0.10670492     0.03000
H2031       H  0.95173711  0.79420910  0.16043557     0.08100
H2032       H  0.91922382  0.82672233  0.08958185     0.06900
N2033       N  0.65866316  0.76161334  0.08167909    -0.27500
N2034       N  0.66836772  0.73955244  0.09147386    -0.35300
C2035       C  0.68913687  0.73211159  0.07684667     0.00900
C2036       C  0.69295494  0.75066835  0.05728911     0.06900
C2037       C  0.67338707  0.76914921  0.06094536    -0.06200
H2038       H  0.70086944  0.71474213  0.08048960     0.07600
H2039       H  0.66975915  0.78647557  0.04909735     0.08800
Cu2040     Cu  0.65377560  0.72124109  0.12500203     0.44200
Cu2041     Cu  0.62513384  0.77970300  0.09615557     0.42000
Cu2042     Cu  0.59531919  0.74988672  0.15385538     0.43900
N2043       N  0.63546445  0.70664735  0.15852970    -0.34900
N2044       N  0.61340496  0.71635382  0.16832679    -0.29100
C2045       C  0.60586792  0.70162940  0.18905940    -0.05200
C2046       C  0.62434658  0.68205912  0.19271272     0.07000
C2047       C  0.64290344  0.68587625  0.17315443     0.00800
H2048       H  0.58854241  0.70525894  0.20090908     0.08500
H2049       H  0.66027205  0.67414259  0.16951013     0.07500
N2050       N  0.58121021  0.78365397  0.13589146    -0.36300
N2051       N  0.59136647  0.79381079  0.11412153    -0.28500
C2052       C  0.57686232  0.81464753  0.10671229    -0.03700
C2053       C  0.55700603  0.81801162  0.12500647     0.04900
C2054       C  0.56037186  0.79815619  0.14330074     0.03000
H2055       H  0.58082052  0.82675183  0.08959828     0.08100
H2056       H  0.54826709  0.79419672  0.16041443     0.06900
N2057       N  0.59137949  0.98841912  0.41834621    -0.27500
N2058       N  0.58167665  0.51048167  0.40855323    -0.35300
C2059       C  0.56090751  0.51792231  0.42318063     0.00900
C2060       C  0.55708833  0.49936383  0.44273644     0.06900
C2061       C  0.57665520  0.98088251  0.43907927    -0.06200
H2062       H  0.54917409  0.53529099  0.41953723     0.07600
H2063       H  0.58028050  0.96355326  0.45092403     0.08800
Cu2064     Cu  0.59626431  0.52878877  0.37502094     0.44200
Cu2065     Cu  0.62490371  0.97032483  0.40386363     0.42000
Cu2066     Cu  0.65471445  0.50013690  0.34616012     0.43900
N2067       N  0.61456476  0.54337235  0.34148305    -0.34900
N2068       N  0.63662260  0.53366463  0.33168329    -0.29100
C2069       C  0.64415312  0.54838371  0.31094452    -0.05200
C2070       C  0.62567185  0.56795148  0.30728996     0.07000
C2071       C  0.60712035  0.56413854  0.32685411     0.00800
H2072       H  0.66147691  0.54475301  0.29909238     0.08500
H2073       H  0.58975257  0.57587303  0.33050068     0.07500
N2074       N  0.66882067  0.96636686  0.36412091    -0.36300
N2075       N  0.65866519  0.95621079  0.38589153    -0.28500
C2076       C  0.67316610  0.93537075  0.39329780    -0.03700
C2077       C  0.69301962  0.93200379  0.37500108     0.04900
C2078       C  0.68965550  0.95186103  0.35670835     0.03000
H2079       H  0.66920805  0.92326681  0.41041199     0.08100
H2080       H  0.70175909  0.95581934  0.33959357     0.06900
N2081       N  0.90866685  0.98839702  0.41833212    -0.27500
N2082       N  0.91837810  0.51045114  0.40852915    -0.35300
C2083       C  0.93914609  0.51789534  0.42315660     0.00900
C2084       C  0.94295691  0.49934695  0.44272348     0.06900
C2085       C  0.92338608  0.98086808  0.43907145    -0.06200
H2086       H  0.95088348  0.53525995  0.41950673     0.07600
H2087       H  0.91975377  0.96354702  0.45092589     0.08800
Cu2088     Cu  0.90379737  0.52874869  0.37498859     0.44200
Cu2089     Cu  0.87513713  0.97030406  0.40385869     0.42000
Cu2090     Cu  0.84533532  0.50010571  0.34614670     0.43900
N2091       N  0.88548596  0.54333846  0.34145974    -0.34900
N2092       N  0.86342372  0.53363357  0.33166744    -0.29100
C2093       C  0.85588295  0.54835900  0.31093704    -0.05200
C2094       C  0.87436206  0.56792850  0.30728022     0.07000
C2095       C  0.89292295  0.56410965  0.32683407     0.00800
H2096       H  0.83855347  0.54473225  0.29909296     0.08500
H2097       H  0.91029171  0.57584405  0.33047671     0.07500
N2098       N  0.83121840  0.96634644  0.36411872    -0.36300
N2099       N  0.84136985  0.95619408  0.38589283    -0.28500
C2100       C  0.82686209  0.93536025  0.39330449    -0.03700
C2101       C  0.80700856  0.93199371  0.37500748     0.04900
C2102       C  0.81037984  0.95184465  0.35670945     0.03000
H2103       H  0.83081669  0.92325890  0.41042134     0.08100
H2104       H  0.79827921  0.95580070  0.33959195     0.06900
N2105       N  0.90863700  0.76159369  0.41835041    -0.27500
N2106       N  0.91834380  0.73953429  0.40855430    -0.35300
C2107       C  0.93911699  0.73209769  0.42317775     0.00900
C2108       C  0.94293535  0.75065585  0.44273406     0.06900
C2109       C  0.92336334  0.76913289  0.43908110    -0.06200
H2110       H  0.95085292  0.71473118  0.41953213     0.07600
H2111       H  0.91973554  0.78645995  0.45092818     0.08800
Cu2112     Cu  0.90375414  0.72122288  0.37502474     0.44200
Cu2113     Cu  0.87510646  0.77968154  0.40387498     0.42000
Cu2114     Cu  0.84531148  0.74988086  0.34615688     0.43900
N2115       N  0.88545177  0.70663568  0.34148898    -0.34900
N2116       N  0.86339689  0.71634680  0.33168633    -0.29100
C2117       C  0.85586431  0.70162625  0.31094929    -0.05200
C2118       C  0.87434139  0.68205391  0.30729840     0.07000
C2119       C  0.89289252  0.68586565  0.32686320     0.00800
H2120       H  0.83854274  0.70525974  0.29909513     0.08500
H2121       H  0.91025776  0.67412853  0.33051160     0.07500
N2122       N  0.83120037  0.78364745  0.36412129    -0.36300
N2123       N  0.84134871  0.79379771  0.38589793    -0.28500
C2124       C  0.82684516  0.81463556  0.39330526    -0.03700
C2125       C  0.80699750  0.81800730  0.37500313     0.04900
C2126       C  0.81036779  0.79815503  0.35670605     0.03000
H2127       H  0.83079791  0.82673519  0.41042369     0.08100
H2128       H  0.79826964  0.79420101  0.33958645     0.06900
N2129       N  0.63659148  0.71637678  0.33165181    -0.27500
N2130       N  0.61453513  0.70666632  0.34145232    -0.35300
C2131       C  0.60709767  0.68589344  0.32682911     0.00900
C2132       C  0.62565244  0.68207906  0.30726843     0.06900
C2133       C  0.64412809  0.70165312  0.31091841    -0.06200
H2134       H  0.58973350  0.67415459  0.33047831     0.07600
H2135       H  0.66145291  0.70528342  0.29906834     0.08800
Cu2136     Cu  0.59623011  0.72125110  0.37498734     0.44200
Cu2137     Cu  0.65467912  0.74990817  0.34612543     0.42000
Cu2138     Cu  0.62488011  0.77970617  0.40384064     0.43900
N2139       N  0.58164559  0.73955524  0.40852304    -0.34900
N2140       N  0.59135279  0.76161428  0.41831955    -0.29100
C2141       C  0.57663267  0.76914781  0.43905679    -0.05200
C2142       C  0.55706449  0.75066718  0.44271374     0.07000
C2143       C  0.56087835  0.73211289  0.42315271     0.00800
H2144       H  0.58026288  0.78647282  0.45090586     0.08500
H2145       H  0.54914400  0.71474511  0.41950873     0.07500
N2146       N  0.65864477  0.79381861  0.38587281    -0.36300
N2147       N  0.66879545  0.78366851  0.36409714    -0.28500
C2148       C  0.68963415  0.79817111  0.35668901    -0.03700
C2149       C  0.69300599  0.81801984  0.37498977     0.04900
C2150       C  0.67315278  0.81465125  0.39328658     0.03000
H2151       H  0.70173516  0.79421620  0.33957159     0.08100
H2152       H  0.66919926  0.82674996  0.41040592     0.06900
O2153       O  0.52770810  0.90307694  0.14694206    -0.73100
O2154       O  0.97231123  0.84692724  0.14694694    -0.74100
O2155       O  0.52770915  0.84692931  0.14694418    -0.62700
O2156       O  0.97231067  0.90307535  0.14694569    -0.71100
O2157       O  0.97193075  0.90269658  0.10307022    -0.70700
O2158       O  0.52808471  0.84730515  0.10306873    -0.61900
O2159       O  0.97193615  0.84730001  0.10307141    -0.74400
O2160       O  0.52807947  0.90270185  0.10306644    -0.73200
Cu2161     Cu  0.50000986  0.87500223  0.14848679     1.04600
Cu2162     Cu  0.50000770  0.87500083  0.10152704     1.04300
C2163       C  0.53664605  0.91164300  0.12500341     0.93100
C2164       C  0.96337116  0.83836019  0.12500961     0.92200
C2165       C  0.53665033  0.83836491  0.12500639     0.84400
C2166       C  0.96336743  0.91163840  0.12500830     0.90600
O2167       O  0.77808412  0.90269980  0.39694244    -0.73100
O2168       O  0.72192879  0.84730856  0.39693276    -0.74100
O2169       O  0.77807751  0.84730326  0.39693860    -0.62700
O2170       O  0.72193523  0.90270464  0.39693757    -0.71100
O2171       O  0.72231448  0.90308405  0.35306206    -0.70700
O2172       O  0.77770659  0.84693018  0.35306297    -0.61900
O2173       O  0.72230840  0.84693649  0.35305721    -0.74400
O2174       O  0.77771212  0.90307777  0.35306689    -0.73200
Cu2175     Cu  0.75000628  0.87500393  0.39847993     1.04600
Cu2176     Cu  0.75001063  0.87500720  0.35152017     1.04300
C2177       C  0.78665200  0.91164079  0.37500579     0.93100
C2178       C  0.71336423  0.83837103  0.37499343     0.92200
C2179       C  0.78664428  0.83836323  0.37500125     0.84400
C2180       C  0.71337268  0.91164784  0.37499998     0.90600
O2181       O  0.77771498  0.59693344  0.64694193    -0.73100
O2182       O  0.72231172  0.65307375  0.64693830    -0.74100
O2183       O  0.72231763  0.59692652  0.64694116    -0.62700
O2184       O  0.77770869  0.65308041  0.64693815    -0.71100
O2185       O  0.77808676  0.65270087  0.60306263    -0.70700
O2186       O  0.72194064  0.59730172  0.60306555    -0.61900
O2187       O  0.72193753  0.65269831  0.60306282    -0.74400
O2188       O  0.77808970  0.59730389  0.60306632    -0.73200
Cu2189     Cu  0.75001323  0.62500359  0.64848180     1.04600
Cu2190     Cu  0.75001367  0.62500110  0.60152202     1.04300
C2191       C  0.78665610  0.58836662  0.62500505     0.93100
C2192       C  0.71337096  0.66163817  0.62500050     0.92200
C2193       C  0.71337685  0.58836071  0.62500375     0.84400
C2194       C  0.78664997  0.66164414  0.62500007     0.90600
O2195       O  0.97194002  0.65270099  0.89694631    -0.73100
O2196       O  0.52808606  0.59730212  0.89694632    -0.74100
O2197       O  0.52808883  0.65269930  0.89694774    -0.62700
O2198       O  0.97193719  0.59730447  0.89694391    -0.71100
O2199       O  0.97231522  0.59693014  0.85306832    -0.70700
O2200       O  0.52771412  0.65307614  0.85307218    -0.61900
O2201       O  0.52771259  0.59692864  0.85307070    -0.74400
O2202       O  0.97231711  0.65307753  0.85307072    -0.73200
Cu2203     Cu  0.50001299  0.62500163  0.89848833     1.04600
Cu2204     Cu  0.50001487  0.62500311  0.85152853     1.04300
C2205       C  0.96337601  0.66164230  0.87500846     0.93100
C2206       C  0.53665188  0.58836222  0.87500845     0.92200
C2207       C  0.53665442  0.66164066  0.87501026     0.84400
C2208       C  0.96337283  0.58836488  0.87500531     0.90600
loop_ 
_geom_bond_atom_site_label_1 
_geom_bond_atom_site_label_2 
_geom_bond_distance 
_geom_bond_site_symmetry_2 
_ccdc_geom_bond_type 
O1           Cu9   2.002       .  S
O1           C11   1.276       .  A
O2           Cu9   2.017       .  S
O2           C12   1.278       .  A
O3           Cu9   2.017       .  S
O3           C13   1.278       .  A
O4           Cu9   2.002       .  S
O4           C14   1.276       .  A
O5          Cu10   2.017       .  S
O5           C14   1.278       .  A
O6          Cu10   2.002       .  S
O6           C13   1.276       .  A
O7          Cu10   2.001       .  S
O7           C12   1.276       .  A
O8          Cu10   2.017       .  S
O8           C11   1.278       .  A
Cu9         Cu10   2.377       .  S
C11         C170   1.466       .  S
C12         C142   1.466       .  S
C13          C56   1.466       .  S
C14         C270   1.466       .  S
O15         Cu23   2.002       .  S
O15          C25   1.276       .  A
O16         Cu23   2.017       .  S
O16          C26   1.278       .  A
O17         Cu23   2.017       .  S
O17          C27   1.278       .  A
O18         Cu23   2.002       .  S
O18          C28   1.276       .  A
O19         Cu24   2.017       .  S
O19          C28   1.278       .  A
O20         Cu24   2.002       .  S
O20          C27   1.276       .  A
O21         Cu24   2.002       .  S
O21          C26   1.276       .  A
O22         Cu24   2.017       .  S
O22          C25   1.278       .  A
Cu23        Cu24   2.377       .  S
C25         C108   1.466       .  S
C26         C204   1.466       .  S
C27         C246   1.466       .  S
C28          C80   1.466       .  S
O29       Cu1141   2.002       .  S
O29          C39   1.276       .  A
O30         Cu37   2.017       .  S
O30          C40   1.278       .  A
O31       Cu1141   2.017       .  S
O31          C41   1.278       .  A
O32         Cu37   2.002       .  S
O32          C42   1.276       .  A
O33         Cu38   2.017       .  S
O33          C42   1.278       .  A
O34       Cu1142   2.002       .  S
O34          C41   1.276       .  A
O35         Cu38   2.002       .  S
O35          C40   1.276       .  A
O36       Cu1142   2.017       .  S
O36          C39   1.278       .  A
Cu37       O1133   2.002   1_455  S
Cu37       O1135   2.017   1_455  S
Cu37        Cu38   2.377       .  S
Cu38       O1138   2.002   1_455  S
Cu38       O1140   2.017   1_455  S
C39          C46   1.466       .  S
C40         C486   1.466       .  S
C41         C452   1.466       .  S
C42          C70   1.466       .  S
N43          N44   1.323       .  A
N43          C47   1.345       .  A
N43         Cu51   2.072       .  S
N44          C45   1.345       .  A
N44         Cu50   2.074       .  S
C45          C46   1.382       .  A
C45          H48   1.082       .  S
C46          C47   1.382       .  A
C47          H49   1.082       .  S
Cu50         N53   2.074       .  S
Cu51         N61   2.072       .  S
Cu52         N54   2.072       .  S
Cu52         N60   2.072       .  S
N53          N54   1.323       .  A
N53          C57   1.345       .  A
N54          C55   1.345       .  A
C55          C56   1.382       .  A
C55          H58   1.082       .  S
C56          C57   1.382       .  A
C57          H59   1.082       .  S
N60          N61   1.323       .  A
N60          C64   1.345       .  A
N61          C62   1.345       .  A
C62          C63   1.381       .  A
C62          H65   1.082       .  S
C63         C538   1.464       .  S
C63          C64   1.381       .  A
C64          H66   1.082       .  S
N67          N68   1.323       .  A
N67          C71   1.345       .  A
N67         Cu75   2.072       .  S
N68          C69   1.345       .  A
N68         Cu74   2.074       .  S
C69          C70   1.382       .  A
C69          H72   1.082       .  S
C70          C71   1.382       .  A
C71          H73   1.082       .  S
Cu74         N77   2.074       .  S
Cu75         N85   2.072       .  S
Cu76         N78   2.072       .  S
Cu76         N84   2.072       .  S
N77          N78   1.323       .  A
N77          C81   1.345       .  A
N78          C79   1.345       .  A
C79          C80   1.382       .  A
C79          H82   1.082       .  S
C80          C81   1.382       .  A
C81          H83   1.082       .  S
N84          N85   1.323       .  A
N84          C88   1.345       .  A
N85          C86   1.345       .  A
C86          C87   1.381       .  A
C86          H89   1.082       .  S
C87         C536   1.464       .  S
C87          C88   1.381       .  A
C88          H90   1.082       .  S
O91         Cu99   2.002       .  S
O91         C101   1.276   1_545  A
O92       Cu1203   2.017       .  S
O92         C654   1.278       .  A
O93         Cu99   2.017       .  S
O93         C655   1.278       .  A
O94       Cu1203   2.002       .  S
O94         C104   1.276   1_545  A
O95       Cu1204   2.017       .  S
O95         C656   1.278       .  A
O96        Cu100   2.001       .  S
O96         C103   1.276       .  A
O97       Cu1204   2.002       .  S
O97         C102   1.276       .  A
O98        Cu100   2.017       .  S
O98         C653   1.278       .  A
Cu99       O1196   2.017   1_455  S
Cu99       O1198   2.002   1_455  S
Cu99       Cu652   2.377   1_545  S
Cu100      O1199   2.017   1_455  S
Cu100      O1201   2.002   1_455  S
Cu100      Cu651   2.377       .  S
C101        O650   1.278       .  A
C101        C404   1.466       .  S
C102        O644   1.278       .  A
C102        C132   1.466       .  S
C103        O645   1.278       .  A
C103        C118   1.466       .  S
C104        O647   1.278       .  A
C104        C428   1.466       .  S
N105        N106   1.323       .  A
N105        C109   1.345       .  A
N105       Cu113   2.072       .  S
N106        C107   1.345       .  A
N106       Cu112   2.074       .  S
C107        C108   1.382       .  A
C107        H110   1.082       .  S
C108        C109   1.382       .  A
C109        H111   1.082       .  S
Cu112       N115   2.074       .  S
Cu113       N675   2.072       .  S
Cu114       N116   2.072       .  S
Cu114       N122   2.072       .  S
N115        N668   1.323       .  A
N115        C119   1.345       .  A
N116        N667   1.323   1_545  A
N116        C117   1.345       .  A
C117        C670   1.382       .  A
C117        H120   1.082       .  S
C118        C119   1.382       .  A
C118        C669   1.382       .  A
C119        H121   1.082       .  S
N122        N123   1.323       .  A
N122        C126   1.345       .  A
N123        C124   1.345       .  A
N123       Cu665   2.072   1_545  S
C124        C125   1.381       .  A
C124        H127   1.082       .  S
C125        C537   1.464       .  S
C125        C126   1.381       .  A
C126        H128   1.082       .  S
N129        N682   1.323   1_545  A
N129        C133   1.345       .  A
N129       Cu137   2.072       .  S
N130        N681   1.323       .  A
N130        C131   1.345       .  A
N130       Cu136   2.074       .  S
C131        C132   1.382       .  A
C131        H134   1.082       .  S
C132        C685   1.382       .  A
C133        C684   1.382       .  A
C133        H135   1.082       .  S
Cu136       N139   2.074       .  S
Cu137       N147   2.072       .  S
Cu138       N140   2.072       .  S
Cu138       N698   2.072       .  S
N139        N140   1.323       .  A
N139        C143   1.345       .  A
N140        C141   1.345       .  A
C141        C142   1.382       .  A
C141        H144   1.082       .  S
C142        C143   1.382       .  A
C143        H145   1.082       .  S
N146        N147   1.323       .  A
N146        C150   1.345       .  A
N146       Cu690   2.072   1_545  S
N147        C148   1.345       .  A
C148        C149   1.381       .  A
C148        H151   1.082       .  S
C149        C535   1.464       .  S
C149        C150   1.381       .  A
C150        H152   1.082       .  S
O153       Cu161   2.017   1_554  S
O153        C163   1.278       .  A
O154       Cu161   2.002       .  S
O154        C164   1.276       .  A
O155       Cu161   2.002       .  S
O155        C165   1.276       .  A
O156       Cu161   2.017   1_554  S
O156        C166   1.278       .  A
O157       Cu162   2.001       .  S
O157        C166   1.276       .  A
O158       Cu162   2.017   1_556  S
O158        C165   1.278       .  A
O159       Cu162   2.017   1_556  S
O159        C164   1.278       .  A
O160       Cu162   2.002       .  S
O160        C163   1.276       .  A
Cu161      Cu162   2.377   1_556  S
C163        C380   1.466       .  S
C164        C180   1.466       .  S
C165        C194   1.466       .  S
C166        C366   1.466       .  S
N167        N168   1.323       .  A
N167        C171   1.345       .  A
N167       Cu175   2.072       .  S
N168        C169   1.345       .  A
N168       Cu174   2.074       .  S
C169        C170   1.382       .  A
C169        H172   1.082       .  S
C170        C171   1.382       .  A
C171        H173   1.082       .  S
Cu174       N177   2.074       .  S
Cu175       N185   2.072       .  S
Cu176       N178   2.072       .  S
Cu176       N184   2.072       .  S
N177        N178   1.323       .  A
N177        C181   1.345       .  A
N178        C179   1.345       .  A
C179        C180   1.382       .  A
C179        H182   1.082       .  S
C180        C181   1.382       .  A
C181        H183   1.082       .  S
N184        N185   1.323       .  A
N184        C188   1.345       .  A
N185        C186   1.345       .  A
C186        C187   1.381       .  A
C186        H189   1.082       .  S
C187        C549   1.464       .  S
C187        C188   1.381       .  A
C188        H190   1.082       .  S
N191        N192   1.323       .  A
N191        C195   1.345       .  A
N191       Cu199   2.072       .  S
N192        C193   1.345       .  A
N192       Cu198   2.074       .  S
C193        C194   1.382       .  A
C193        H196   1.082       .  S
C194        C195   1.382       .  A
C195        H197   1.082       .  S
Cu198       N201   2.074       .  S
Cu199       N209   2.072       .  S
Cu200       N202   2.072       .  S
Cu200       N208   2.072       .  S
N201        N202   1.323       .  A
N201        C205   1.345       .  A
N202        C203   1.345       .  A
C203        C204   1.382       .  A
C203        H206   1.082       .  S
C204        C205   1.382       .  A
C205        H207   1.082       .  S
N208        N209   1.323       .  A
N208        C212   1.345       .  A
N209        C210   1.345       .  A
C210        C211   1.381       .  A
C210        H213   1.082       .  S
C211        C551   1.464       .  S
C211        C212   1.381       .  A
C212        H214   1.082       .  S
O215       Cu223   2.017       .  S
O215        C225   1.278       .  A
O216       Cu223   2.002       .  S
O216        C226   1.276       .  A
O217       Cu223   2.002       .  S
O217        C227   1.276       .  A
O218       Cu223   2.017       .  S
O218        C228   1.278       .  A
O219       Cu224   2.002       .  S
O219        C228   1.276       .  A
O220       Cu224   2.017       .  S
O220        C227   1.278       .  A
O221       Cu224   2.017       .  S
O221        C226   1.278       .  A
O222       Cu224   2.001       .  S
O222        C225   1.276       .  A
Cu223      Cu224   2.377       .  S
C225        C438   1.466       .  S
C226        C356   1.466       .  S
C227        C342   1.466       .  S
C228        C462   1.466       .  S
O229       Cu237   2.017   1_556  S
O229        C239   1.278       .  A
O230       Cu237   2.002       .  S
O230        C240   1.276   1_545  A
O231       Cu237   2.002       .  S
O231        C241   1.276   1_545  A
O232       Cu237   2.017   1_556  S
O232        C794   1.278       .  A
O233       Cu238   2.002       .  S
O233        C242   1.276       .  A
O234       Cu238   2.017   1_554  S
O234        C793   1.278       .  A
O235       Cu238   2.017   1_554  S
O235        C792   1.278       .  A
O236       Cu238   2.002       .  S
O236        C791   1.276       .  A
Cu237      Cu790   2.377   1_544  S
Cu238      Cu789   2.377   1_556  S
C239        O788   1.276   1_545  A
C239        C832   1.466       .  S
C240        O787   1.278       .  A
C240        C308   1.466       .  S
C241        O786   1.278       .  A
C241        C332   1.466       .  S
C242        O784   1.278       .  A
C242        C256   1.466       .  S
N243        N244   1.323       .  A
N243        C247   1.345       .  A
N243       Cu251   2.072       .  S
N244        C245   1.345       .  A
N244       Cu250   2.074       .  S
C245        C246   1.382       .  A
C245        H248   1.082       .  S
C246        C247   1.382       .  A
C247        H249   1.082       .  S
Cu250       N253   2.074       .  S
Cu251       N813   2.072       .  S
Cu252       N254   2.072       .  S
Cu252       N260   2.072       .  S
N253        N806   1.323       .  A
N253        C257   1.345       .  A
N254        N805   1.323   1_545  A
N254        C255   1.345       .  A
C255        C808   1.382       .  A
C255        H258   1.082       .  S
C256        C257   1.382       .  A
C256        C807   1.382       .  A
C257        H259   1.082       .  S
N260        N261   1.323       .  A
N260        C264   1.345       .  A
N261        C262   1.345       .  A
N261       Cu803   2.072   1_545  S
C262        C263   1.381       .  A
C262        H265   1.082       .  S
C263        C550   1.464       .  S
C263        C264   1.381       .  A
C264        H266   1.082       .  S
N267        N268   1.323       .  A
N267        C271   1.345       .  A
N267       Cu275   2.072       .  S
N268        C269   1.345       .  A
N268       Cu274   2.074       .  S
C269        C270   1.382       .  A
C269        H272   1.082       .  S
C270        C271   1.382       .  A
C271        H273   1.082       .  S
Cu274       N277   2.074       .  S
Cu275       N837   2.072       .  S
Cu276       N278   2.072       .  S
Cu276       N284   2.072       .  S
N277        N830   1.323       .  A
N277        C281   1.345       .  A
N278        N829   1.323   1_545  A
N278        C279   1.345       .  A
C279        C832   1.382       .  A
C279        H282   1.082       .  S
C280        C791   1.466       .  S
C280        C281   1.382       .  A
C280        C831   1.382       .  A
C281        H283   1.082       .  S
N284        N285   1.323       .  A
N284        C288   1.345       .  A
N285        C286   1.345       .  A
N285       Cu827   2.072   1_545  S
C286        C287   1.381       .  A
C286        H289   1.082       .  S
C287        C552   1.464       .  S
C287        C288   1.381       .  A
C288        H290   1.082       .  S
O291       Cu299   2.002       .  S
O291        C301   1.276       .  A
O292       Cu299   2.017       .  S
O292        C302   1.278       .  A
O293       Cu299   2.017       .  S
O293        C303   1.278       .  A
O294       Cu299   2.002       .  S
O294        C304   1.276       .  A
O295       Cu300   2.017       .  S
O295        C304   1.278       .  A
O296       Cu300   2.002       .  S
O296        C303   1.276       .  A
O297       Cu300   2.002       .  S
O297        C302   1.276       .  A
O298       Cu300   2.017       .  S
O298        C301   1.278       .  A
Cu299      Cu300   2.377       .  S
C301        C318   1.466       .  S
C302        C476   1.466       .  S
C303        C414   1.466       .  S
C304        C390   1.466       .  S
N305        N858   1.323       .  A
N305        C309   1.345       .  A
N305       Cu313   2.072       .  S
N306        N857   1.323   1_545  A
N306        C307   1.345       .  A
N306       Cu312   2.074       .  S
C307        C308   1.382   1_545  A
C307        H310   1.082       .  S
C308        C861   1.382       .  A
C309        C860   1.382       .  A
C309        H311   1.082       .  S
Cu312       N315   2.074       .  S
Cu313       N323   2.072       .  S
Cu314       N316   2.072       .  S
Cu314       N874   2.072   1_545  S
N315        N316   1.323       .  A
N315        C319   1.345       .  A
N316        C317   1.345       .  A
C317        C318   1.382       .  A
C317        H320   1.082       .  S
C318        C319   1.382       .  A
C319        H321   1.082       .  S
N322        N323   1.323       .  A
N322        C326   1.345       .  A
N322       Cu866   2.072       .  S
N323        C324   1.345       .  A
C324        C325   1.381       .  A
C324        H327   1.082       .  S
C325        C507   1.464       .  S
C325        C326   1.381       .  A
C326        H328   1.082       .  S
N329        N882   1.323       .  A
N329        C333   1.345       .  A
N329       Cu337   2.072       .  S
N330        N881   1.323   1_545  A
N330        C331   1.345       .  A
N330       Cu336   2.074       .  S
C331        C332   1.382   1_545  A
C331        H334   1.082       .  S
C332        C885   1.382       .  A
C333        C884   1.382       .  A
C333        H335   1.082       .  S
Cu336       N339   2.074       .  S
Cu337       N347   2.072       .  S
Cu338       N340   2.072       .  S
Cu338       N898   2.072   1_545  S
N339        N340   1.323       .  A
N339        C343   1.345       .  A
N340        C341   1.345       .  A
C341        C342   1.382       .  A
C341        H344   1.082       .  S
C342        C343   1.382       .  A
C343        H345   1.082       .  S
N346        N347   1.323       .  A
N346        C350   1.345       .  A
N346       Cu890   2.072       .  S
N347        C348   1.345       .  A
C348        C349   1.381       .  A
C348        H351   1.082       .  S
C349        C510   1.464       .  S
C349        C350   1.381       .  A
C350        H352   1.082       .  S
N353        N354   1.323       .  A
N353        C357   1.345       .  A
N353       Cu361   2.072       .  S
N354        C355   1.345       .  A
N354       Cu360   2.074       .  S
C355        C356   1.382       .  A
C355        H358   1.082       .  S
C356        C357   1.382       .  A
C357        H359   1.082       .  S
Cu360       N363   2.074       .  S
Cu361       N371   2.072       .  S
Cu362       N364   2.072       .  S
Cu362       N370   2.072       .  S
N363        N364   1.323       .  A
N363        C367   1.345       .  A
N364        C365   1.345       .  A
C365        C366   1.382       .  A
C365        H368   1.082       .  S
C366        C367   1.382       .  A
C367        H369   1.082       .  S
N370        N371   1.323       .  A
N370        C374   1.345       .  A
N371        C372   1.345       .  A
C372        C373   1.381       .  A
C372        H375   1.082       .  S
C373        C508   1.464       .  S
C373        C374   1.381       .  A
C374        H376   1.082       .  S
N377        N378   1.323       .  A
N377        C381   1.345       .  A
N377       Cu385   2.072       .  S
N378        C379   1.345       .  A
N378       Cu384   2.074       .  S
C379        C380   1.382       .  A
C379        H382   1.082       .  S
C380        C381   1.382       .  A
C381        H383   1.082       .  S
Cu384       N387   2.074       .  S
Cu385       N395   2.072       .  S
Cu386       N388   2.072       .  S
Cu386       N394   2.072       .  S
N387        N388   1.323       .  A
N387        C391   1.345       .  A
N388        C389   1.345       .  A
C389        C390   1.382       .  A
C389        H392   1.082       .  S
C390        C391   1.382       .  A
C391        H393   1.082       .  S
N394        N395   1.323       .  A
N394        C398   1.345       .  A
N395        C396   1.345       .  A
C396        C397   1.381       .  A
C396        H399   1.082       .  S
C397        C509   1.464       .  S
C397        C398   1.381       .  A
C398        H400   1.082       .  S
N401        N954   1.323       .  A
N401        C405   1.345       .  A
N401       Cu409   2.072       .  S
N402        N953   1.323   1_545  A
N402        C403   1.345       .  A
N402       Cu408   2.074       .  S
C403        C404   1.382   1_545  A
C403        H406   1.082       .  S
C404        C957   1.382       .  A
C405        C956   1.382       .  A
C405        H407   1.082       .  S
Cu408       N411   2.074       .  S
Cu409       N419   2.072       .  S
Cu410       N412   2.072       .  S
Cu410       N970   2.072   1_545  S
N411        N412   1.323       .  A
N411        C415   1.345       .  A
N412        C413   1.345       .  A
C413        C414   1.382       .  A
C413        H416   1.082       .  S
C414        C415   1.382       .  A
C415        H417   1.082       .  S
N418        N419   1.323       .  A
N418        C422   1.345       .  A
N418       Cu962   2.072       .  S
N419        C420   1.345       .  A
C420        C421   1.381       .  A
C420        H423   1.082       .  S
C421        C524   1.464       .  S
C421        C422   1.381       .  A
C422        H424   1.082       .  S
N425        N978   1.323       .  A
N425        C429   1.345       .  A
N425       Cu433   2.072       .  S
N426        N977   1.323   1_545  A
N426        C427   1.345       .  A
N426       Cu432   2.074       .  S
C427        C428   1.382   1_545  A
C427        H430   1.082       .  S
C428        C981   1.382       .  A
C429        C980   1.382       .  A
C429        H431   1.082       .  S
Cu432       N435   2.074       .  S
Cu433       N443   2.072       .  S
Cu434       N436   2.072       .  S
Cu434       N994   2.072   1_545  S
N435        N436   1.323       .  A
N435        C439   1.345       .  A
N436        C437   1.345       .  A
C437        C438   1.382       .  A
C437        H440   1.082       .  S
C438        C439   1.382       .  A
C439        H441   1.082       .  S
N442        N443   1.323       .  A
N442        C446   1.345       .  A
N442       Cu986   2.072       .  S
N443        C444   1.345       .  A
C444        C445   1.381       .  A
C444        H447   1.082       .  S
C445        C521   1.464       .  S
C445        C446   1.381       .  A
C446        H448   1.082       .  S
N449        N450   1.323       .  A
N449        C453   1.345       .  A
N449       Cu457   2.072       .  S
N450        C451   1.345       .  A
N450       Cu456   2.074       .  S
C451        C452   1.382       .  A
C451        H454   1.082       .  S
C452        C453   1.382       .  A
C453        H455   1.082       .  S
Cu456       N459   2.074       .  S
Cu457       N467   2.072       .  S
Cu458       N460   2.072       .  S
Cu458       N466   2.072       .  S
N459        N460   1.323       .  A
N459        C463   1.345       .  A
N460        C461   1.345       .  A
C461        C462   1.382       .  A
C461        H464   1.082       .  S
C462        C463   1.382       .  A
C463        H465   1.082       .  S
N466        N467   1.323       .  A
N466        C470   1.345       .  A
N467        C468   1.345       .  A
C468        C469   1.381       .  A
C468        H471   1.082       .  S
C469        C523   1.464       .  S
C469        C470   1.381       .  A
C470        H472   1.082       .  S
N473        N474   1.323       .  A
N473        C477   1.345       .  A
N473       Cu481   2.072       .  S
N474        C475   1.345       .  A
N474       Cu480   2.074       .  S
C475        C476   1.382       .  A
C475        H478   1.082       .  S
C476        C477   1.382       .  A
C477        H479   1.082       .  S
Cu480       N483   2.074       .  S
Cu481       N491   2.072       .  S
Cu482       N484   2.072       .  S
Cu482       N490   2.072       .  S
N483        N484   1.323       .  A
N483        C487   1.345       .  A
N484        C485   1.345       .  A
C485        C486   1.382       .  A
C485        H488   1.082       .  S
C486        C487   1.382       .  A
C487        H489   1.082       .  S
N490        N491   1.323       .  A
N490        C494   1.345       .  A
N491        C492   1.345       .  A
C492        C493   1.381       .  A
C492        H495   1.082       .  S
C493        C522   1.464       .  S
C493        C494   1.381       .  A
C494        H496   1.082       .  S
O497       Cu505   2.008       .  S
O497        C507   1.277       .  A
O498      Cu1609   2.008       .  S
O498        C508   1.277       .  A
O499       Cu505   2.008       .  S
O499        C509   1.277       .  A
O500      Cu1609   2.008       .  S
O500        C510   1.277       .  A
O501      Cu1610   2.008       .  S
O501        C510   1.277       .  A
O502       Cu506   2.008       .  S
O502        C509   1.277       .  A
O503      Cu1610   2.008       .  S
O503        C508   1.277       .  A
O504       Cu506   2.008       .  S
O504        C507   1.277       .  A
Cu505      O1602   2.008   1_455  S
Cu505      O1604   2.008   1_455  S
Cu505      Cu506   2.378       .  S
Cu506      O1605   2.008   1_455  S
Cu506      O1607   2.008   1_455  S
O511       Cu519   2.008       .  S
O511        C521   1.277       .  A
O512       Cu519   2.008       .  S
O512        C522   1.277       .  A
O513       Cu519   2.008       .  S
O513        C523   1.277       .  A
O514       Cu519   2.008       .  S
O514        C524   1.277       .  A
O515       Cu520   2.008       .  S
O515        C524   1.277       .  A
O516       Cu520   2.008       .  S
O516        C523   1.277       .  A
O517       Cu520   2.008       .  S
O517        C522   1.277       .  A
O518       Cu520   2.008       .  S
O518        C521   1.277       .  A
Cu519      Cu520   2.378       .  S
O525       Cu533   2.008       .  S
O525        C535   1.277       .  A
O526       Cu533   2.008       .  S
O526        C536   1.277       .  A
O527       Cu533   2.008       .  S
O527        C537   1.277       .  A
O528       Cu533   2.008       .  S
O528        C538   1.277       .  A
O529       Cu534   2.008       .  S
O529        C538   1.277       .  A
O530       Cu534   2.008       .  S
O530        C537   1.277       .  A
O531       Cu534   2.008       .  S
O531        C536   1.277       .  A
O532       Cu534   2.008       .  S
O532        C535   1.277       .  A
Cu533      Cu534   2.378       .  S
O539      Cu1651   2.008       .  S
O539        C549   1.277       .  A
O540       Cu547   2.008       .  S
O540        C550   1.277       .  A
O541       Cu547   2.008       .  S
O541        C551   1.277       .  A
O542      Cu1651   2.008       .  S
O542        C552   1.277       .  A
O543      Cu1652   2.008       .  S
O543        C552   1.277       .  A
O544       Cu548   2.008       .  S
O544        C551   1.277       .  A
O545       Cu548   2.008       .  S
O545        C550   1.277       .  A
O546      Cu1652   2.008       .  S
O546        C549   1.277       .  A
Cu547      O1643   2.008   1_455  S
Cu547      O1646   2.008   1_455  S
Cu547      Cu548   2.378       .  S
Cu548      O1647   2.008   1_455  S
Cu548      O1650   2.008   1_455  S
O553       Cu561   2.002       .  S
O553        C563   1.276       .  A
O554       Cu561   2.017       .  S
O554        C564   1.278       .  A
O555       Cu561   2.017       .  S
O555        C565   1.278       .  A
O556       Cu561   2.002       .  S
O556        C566   1.276       .  A
O557       Cu562   2.017       .  S
O557        C566   1.278       .  A
O558       Cu562   2.002       .  S
O558        C565   1.276       .  A
O559       Cu562   2.002       .  S
O559        C564   1.276       .  A
O560       Cu562   2.017       .  S
O560        C563   1.278       .  A
Cu561      Cu562   2.377       .  S
C563        C722   1.466       .  S
C564        C694   1.466       .  S
C565        C608   1.466       .  S
C566        C822   1.466       .  S
O567       Cu575   2.002       .  S
O567        C577   1.276       .  A
O568       Cu575   2.017       .  S
O568        C578   1.278       .  A
O569       Cu575   2.017       .  S
O569        C579   1.278       .  A
O570       Cu575   2.002       .  S
O570        C580   1.276       .  A
O571       Cu576   2.017       .  S
O571        C580   1.278       .  A
O572       Cu576   2.002       .  S
O572        C579   1.276       .  A
O573       Cu576   2.002       .  S
O573        C578   1.276       .  A
O574       Cu576   2.017       .  S
O574        C577   1.278       .  A
Cu575      Cu576   2.377       .  S
C577        C660   1.466       .  S
C578        C756   1.466       .  S
C579        C798   1.466       .  S
C580        C632   1.466       .  S
O581      Cu1693   2.002       .  S
O581        C591   1.276       .  A
O582       Cu589   2.017       .  S
O582        C592   1.278       .  A
O583      Cu1693   2.017       .  S
O583        C593   1.278       .  A
O584       Cu589   2.002       .  S
O584        C594   1.276       .  A
O585       Cu590   2.017       .  S
O585        C594   1.278       .  A
O586      Cu1694   2.002       .  S
O586        C593   1.276       .  A
O587       Cu590   2.002       .  S
O587        C592   1.276       .  A
O588      Cu1694   2.017       .  S
O588        C591   1.278       .  A
Cu589      O1685   2.002   1_455  S
Cu589      O1687   2.017   1_455  S
Cu589      Cu590   2.377       .  S
Cu590      O1690   2.002   1_455  S
Cu590      O1692   2.017   1_455  S
C591        C598   1.466       .  S
C592       C1038   1.466       .  S
C593       C1004   1.466       .  S
C594        C622   1.466       .  S
N595        N596   1.323       .  A
N595        C599   1.345       .  A
N595       Cu603   2.072       .  S
N596        C597   1.345       .  A
N596       Cu602   2.074       .  S
C597        C598   1.382       .  A
C597        H600   1.082       .  S
C598        C599   1.382       .  A
C599        H601   1.082       .  S
Cu602       N605   2.074       .  S
Cu603       N613   2.072       .  S
Cu604       N606   2.072       .  S
Cu604       N612   2.072       .  S
N605        N606   1.323       .  A
N605        C609   1.345       .  A
N606        C607   1.345       .  A
C607        C608   1.382       .  A
C607        H610   1.082       .  S
C608        C609   1.382       .  A
C609        H611   1.082       .  S
N612        N613   1.323       .  A
N612        C616   1.345       .  A
N613        C614   1.345       .  A
C614        C615   1.381       .  A
C614        H617   1.082       .  S
C615       C1090   1.464       .  S
C615        C616   1.381       .  A
C616        H618   1.082       .  S
N619        N620   1.323       .  A
N619        C623   1.345       .  A
N619       Cu627   2.072       .  S
N620        C621   1.345       .  A
N620       Cu626   2.074       .  S
C621        C622   1.382       .  A
C621        H624   1.082       .  S
C622        C623   1.382       .  A
C623        H625   1.082       .  S
Cu626       N629   2.074       .  S
Cu627       N637   2.072       .  S
Cu628       N630   2.072       .  S
Cu628       N636   2.072       .  S
N629        N630   1.323       .  A
N629        C633   1.345       .  A
N630        C631   1.345       .  A
C631        C632   1.382       .  A
C631        H634   1.082       .  S
C632        C633   1.382       .  A
C633        H635   1.082       .  S
N636        N637   1.323       .  A
N636        C640   1.345       .  A
N637        C638   1.345       .  A
C638        C639   1.381       .  A
C638        H641   1.082       .  S
C639       C1088   1.464       .  S
C639        C640   1.381       .  A
C640        H642   1.082       .  S
O643       Cu651   2.002       .  S
O643        C653   1.276       .  A
O644      Cu1755   2.017       .  S
O645       Cu651   2.017       .  S
O646      Cu1755   2.002       .  S
O646        C656   1.276       .  A
O647      Cu1756   2.017       .  S
O648       Cu652   2.001       .  S
O648        C655   1.276   1_565  A
O649      Cu1756   2.002       .  S
O649        C654   1.276   1_565  A
O650       Cu652   2.017       .  S
Cu651      O1748   2.017   1_455  S
Cu651      O1750   2.002   1_455  S
Cu652      O1751   2.017   1_455  S
Cu652      O1753   2.002   1_455  S
C653        C956   1.466       .  S
C654        C684   1.466       .  S
C655        C670   1.466       .  S
C656        C980   1.466       .  S
N657        N658   1.323       .  A
N657        C661   1.345       .  A
N657       Cu665   2.072       .  S
N658        C659   1.345       .  A
N658       Cu664   2.074       .  S
C659        C660   1.382       .  A
C659        H662   1.082       .  S
C660        C661   1.382       .  A
C661        H663   1.082       .  S
Cu664       N667   2.074       .  S
Cu666       N668   2.072       .  S
Cu666       N674   2.072       .  S
N667        C671   1.345       .  A
N668        C669   1.345       .  A
C669        H672   1.082       .  S
C670        C671   1.382   1_545  A
C671        H673   1.082       .  S
N674        N675   1.323       .  A
N674        C678   1.345       .  A
N675        C676   1.345       .  A
C676        C677   1.381       .  A
C676        H679   1.082       .  S
C677       C1089   1.464       .  S
C677        C678   1.381       .  A
C678        H680   1.082       .  S
N681        C685   1.345       .  A
N681       Cu689   2.072       .  S
N682        C683   1.345       .  A
N682       Cu688   2.074       .  S
C683        C684   1.382   1_565  A
C683        H686   1.082       .  S
C685        H687   1.082       .  S
Cu688       N691   2.074       .  S
Cu689       N699   2.072       .  S
Cu690       N692   2.072       .  S
N691        N692   1.323       .  A
N691        C695   1.345       .  A
N692        C693   1.345       .  A
C693        C694   1.382       .  A
C693        H696   1.082       .  S
C694        C695   1.382       .  A
C695        H697   1.082       .  S
N698        N699   1.323       .  A
N698        C702   1.345       .  A
N699        C700   1.345       .  A
C700        C701   1.381       .  A
C700        H703   1.082       .  S
C701       C1087   1.464       .  S
C701        C702   1.381       .  A
C702        H704   1.082       .  S
O705       Cu713   2.017   1_554  S
O705        C715   1.278       .  A
O706       Cu713   2.002       .  S
O706        C716   1.276       .  A
O707       Cu713   2.002       .  S
O707        C717   1.276       .  A
O708       Cu713   2.017   1_554  S
O708        C718   1.278       .  A
O709       Cu714   2.001       .  S
O709        C718   1.276       .  A
O710       Cu714   2.017   1_556  S
O710        C717   1.278       .  A
O711       Cu714   2.017   1_556  S
O711        C716   1.278       .  A
O712       Cu714   2.002       .  S
O712        C715   1.276       .  A
Cu713      Cu714   2.377   1_556  S
C715        C932   1.466       .  S
C716        C732   1.466       .  S
C717        C746   1.466       .  S
C718        C918   1.466       .  S
N719        N720   1.323       .  A
N719        C723   1.345       .  A
N719       Cu727   2.072       .  S
N720        C721   1.345       .  A
N720       Cu726   2.074       .  S
C721        C722   1.382       .  A
C721        H724   1.082       .  S
C722        C723   1.382       .  A
C723        H725   1.082       .  S
Cu726       N729   2.074       .  S
Cu727       N737   2.072       .  S
Cu728       N730   2.072       .  S
Cu728       N736   2.072       .  S
N729        N730   1.323       .  A
N729        C733   1.345       .  A
N730        C731   1.345       .  A
C731        C732   1.382       .  A
C731        H734   1.082       .  S
C732        C733   1.382       .  A
C733        H735   1.082       .  S
N736        N737   1.323       .  A
N736        C740   1.345       .  A
N737        C738   1.345       .  A
C738        C739   1.381       .  A
C738        H741   1.082       .  S
C739       C1101   1.464       .  S
C739        C740   1.381       .  A
C740        H742   1.082       .  S
N743        N744   1.323       .  A
N743        C747   1.345       .  A
N743       Cu751   2.072       .  S
N744        C745   1.345       .  A
N744       Cu750   2.074       .  S
C745        C746   1.382       .  A
C745        H748   1.082       .  S
C746        C747   1.382       .  A
C747        H749   1.082       .  S
Cu750       N753   2.074       .  S
Cu751       N761   2.072       .  S
Cu752       N754   2.072       .  S
Cu752       N760   2.072       .  S
N753        N754   1.323       .  A
N753        C757   1.345       .  A
N754        C755   1.345       .  A
C755        C756   1.382       .  A
C755        H758   1.082       .  S
C756        C757   1.382       .  A
C757        H759   1.082       .  S
N760        N761   1.323       .  A
N760        C764   1.345       .  A
N761        C762   1.345       .  A
C762        C763   1.381       .  A
C762        H765   1.082       .  S
C763       C1103   1.464       .  S
C763        C764   1.381       .  A
C764        H766   1.082       .  S
O767       Cu775   2.017       .  S
O767        C777   1.278       .  A
O768       Cu775   2.002       .  S
O768        C778   1.276       .  A
O769       Cu775   2.002       .  S
O769        C779   1.276       .  A
O770       Cu775   2.017       .  S
O770        C780   1.278       .  A
O771       Cu776   2.002       .  S
O771        C780   1.276       .  A
O772       Cu776   2.017       .  S
O772        C779   1.278       .  A
O773       Cu776   2.017       .  S
O773        C778   1.278       .  A
O774       Cu776   2.001       .  S
O774        C777   1.276       .  A
Cu775      Cu776   2.377       .  S
C777        C990   1.466       .  S
C778        C908   1.466       .  S
C779        C894   1.466       .  S
C780       C1014   1.466       .  S
O781       Cu789   2.017   1_556  S
O781        C791   1.278       .  A
O782       Cu789   2.002       .  S
O782        C792   1.276       .  A
O783       Cu789   2.002       .  S
O783        C793   1.276       .  A
O784       Cu789   2.017   1_556  S
O785       Cu790   2.002       .  S
O785        C794   1.276   1_565  A
O786       Cu790   2.017   1_554  S
O787       Cu790   2.017   1_554  S
O788       Cu790   2.002       .  S
C792        C860   1.466       .  S
C793        C884   1.466       .  S
C794        C808   1.466       .  S
N795        N796   1.323       .  A
N795        C799   1.345       .  A
N795       Cu803   2.072       .  S
N796        C797   1.345       .  A
N796       Cu802   2.074       .  S
C797        C798   1.382       .  A
C797        H800   1.082       .  S
C798        C799   1.382       .  A
C799        H801   1.082       .  S
Cu802       N805   2.074       .  S
Cu804       N806   2.072       .  S
Cu804       N812   2.072       .  S
N805        C809   1.345       .  A
N806        C807   1.345       .  A
C807        H810   1.082       .  S
C808        C809   1.382   1_545  A
C809        H811   1.082       .  S
N812        N813   1.323       .  A
N812        C816   1.345       .  A
N813        C814   1.345       .  A
C814        C815   1.381       .  A
C814        H817   1.082       .  S
C815       C1102   1.464       .  S
C815        C816   1.381       .  A
C816        H818   1.082       .  S
N819        N820   1.323       .  A
N819        C823   1.345       .  A
N819       Cu827   2.072       .  S
N820        C821   1.345       .  A
N820       Cu826   2.074       .  S
C821        C822   1.382       .  A
C821        H824   1.082       .  S
C822        C823   1.382       .  A
C823        H825   1.082       .  S
Cu826       N829   2.074       .  S
Cu828       N830   2.072       .  S
Cu828       N836   2.072       .  S
N829        C833   1.345       .  A
N830        C831   1.345       .  A
C831        H834   1.082       .  S
C832        C833   1.382   1_545  A
C833        H835   1.082       .  S
N836        N837   1.323       .  A
N836        C840   1.345       .  A
N837        C838   1.345       .  A
C838        C839   1.381       .  A
C838        H841   1.082       .  S
C839       C1104   1.464       .  S
C839        C840   1.381       .  A
C840        H842   1.082       .  S
O843       Cu851   2.002       .  S
O843        C853   1.276       .  A
O844       Cu851   2.017       .  S
O844        C854   1.278       .  A
O845       Cu851   2.017       .  S
O845        C855   1.278       .  A
O846       Cu851   2.002       .  S
O846        C856   1.276       .  A
O847       Cu852   2.017       .  S
O847        C856   1.278       .  A
O848       Cu852   2.002       .  S
O848        C855   1.276       .  A
O849       Cu852   2.002       .  S
O849        C854   1.276       .  A
O850       Cu852   2.017       .  S
O850        C853   1.278       .  A
Cu851      Cu852   2.377       .  S
C853        C870   1.466       .  S
C854       C1028   1.466       .  S
C855        C966   1.466       .  S
C856        C942   1.466       .  S
N857        C861   1.345       .  A
N857       Cu865   2.072       .  S
N858        C859   1.345       .  A
N858       Cu864   2.074       .  S
C859        C860   1.382       .  A
C859        H862   1.082       .  S
C861        H863   1.082       .  S
Cu864       N867   2.074       .  S
Cu865       N875   2.072       .  S
Cu866       N868   2.072       .  S
N867        N868   1.323       .  A
N867        C871   1.345       .  A
N868        C869   1.345       .  A
C869        C870   1.382       .  A
C869        H872   1.082       .  S
C870        C871   1.382       .  A
C871        H873   1.082       .  S
N874        N875   1.323       .  A
N874        C878   1.345       .  A
N875        C876   1.345       .  A
C876        C877   1.381       .  A
C876        H879   1.082       .  S
C877       C1059   1.464       .  S
C877        C878   1.381       .  A
C878        H880   1.082       .  S
N881        C885   1.345       .  A
N881       Cu889   2.072       .  S
N882        C883   1.345       .  A
N882       Cu888   2.074       .  S
C883        C884   1.382       .  A
C883        H886   1.082       .  S
C885        H887   1.082       .  S
Cu888       N891   2.074       .  S
Cu889       N899   2.072       .  S
Cu890       N892   2.072       .  S
N891        N892   1.323       .  A
N891        C895   1.345       .  A
N892        C893   1.345       .  A
C893        C894   1.382       .  A
C893        H896   1.082       .  S
C894        C895   1.382       .  A
C895        H897   1.082       .  S
N898        N899   1.323       .  A
N898        C902   1.345       .  A
N899        C900   1.345       .  A
C900        C901   1.381       .  A
C900        H903   1.082       .  S
C901       C1062   1.464       .  S
C901        C902   1.381       .  A
C902        H904   1.082       .  S
N905        N906   1.323       .  A
N905        C909   1.345       .  A
N905       Cu913   2.072       .  S
N906        C907   1.345       .  A
N906       Cu912   2.074       .  S
C907        C908   1.382       .  A
C907        H910   1.082       .  S
C908        C909   1.382       .  A
C909        H911   1.082       .  S
Cu912       N915   2.074       .  S
Cu913       N923   2.072       .  S
Cu914       N916   2.072       .  S
Cu914       N922   2.072       .  S
N915        N916   1.323       .  A
N915        C919   1.345       .  A
N916        C917   1.345       .  A
C917        C918   1.382       .  A
C917        H920   1.082       .  S
C918        C919   1.382       .  A
C919        H921   1.082       .  S
N922        N923   1.323       .  A
N922        C926   1.345       .  A
N923        C924   1.345       .  A
C924        C925   1.381       .  A
C924        H927   1.082       .  S
C925       C1060   1.464       .  S
C925        C926   1.381       .  A
C926        H928   1.082       .  S
N929        N930   1.323       .  A
N929        C933   1.345       .  A
N929       Cu937   2.072       .  S
N930        C931   1.345       .  A
N930       Cu936   2.074       .  S
C931        C932   1.382       .  A
C931        H934   1.082       .  S
C932        C933   1.382       .  A
C933        H935   1.082       .  S
Cu936       N939   2.074       .  S
Cu937       N947   2.072       .  S
Cu938       N940   2.072       .  S
Cu938       N946   2.072       .  S
N939        N940   1.323       .  A
N939        C943   1.345       .  A
N940        C941   1.345       .  A
C941        C942   1.382       .  A
C941        H944   1.082       .  S
C942        C943   1.382       .  A
C943        H945   1.082       .  S
N946        N947   1.323       .  A
N946        C950   1.345       .  A
N947        C948   1.345       .  A
C948        C949   1.381       .  A
C948        H951   1.082       .  S
C949       C1061   1.464       .  S
C949        C950   1.381       .  A
C950        H952   1.082       .  S
N953        C957   1.345       .  A
N953       Cu961   2.072       .  S
N954        C955   1.345       .  A
N954       Cu960   2.074       .  S
C955        C956   1.382       .  A
C955        H958   1.082       .  S
C957        H959   1.082       .  S
Cu960       N963   2.074       .  S
Cu961       N971   2.072       .  S
Cu962       N964   2.072       .  S
N963        N964   1.323       .  A
N963        C967   1.345       .  A
N964        C965   1.345       .  A
C965        C966   1.382       .  A
C965        H968   1.082       .  S
C966        C967   1.382       .  A
C967        H969   1.082       .  S
N970        N971   1.323       .  A
N970        C974   1.345       .  A
N971        C972   1.345       .  A
C972        C973   1.381       .  A
C972        H975   1.082       .  S
C973       C1076   1.464       .  S
C973        C974   1.381       .  A
C974        H976   1.082       .  S
N977        C981   1.345       .  A
N977       Cu985   2.072       .  S
N978        C979   1.345       .  A
N978       Cu984   2.074       .  S
C979        C980   1.382       .  A
C979        H982   1.082       .  S
C981        H983   1.082       .  S
Cu984       N987   2.074       .  S
Cu985       N995   2.072       .  S
Cu986       N988   2.072       .  S
N987        N988   1.323       .  A
N987        C991   1.345       .  A
N988        C989   1.345       .  A
C989        C990   1.382       .  A
C989        H992   1.082       .  S
C990        C991   1.382       .  A
C991        H993   1.082       .  S
N994        N995   1.323       .  A
N994        C998   1.345       .  A
N995        C996   1.345       .  A
C996        C997   1.381       .  A
C996        H999   1.082       .  S
C997       C1073   1.464       .  S
C997        C998   1.381       .  A
C998       H1000   1.082       .  S
N1001      N1002   1.323       .  A
N1001      C1005   1.345       .  A
N1001     Cu1009   2.072       .  S
N1002      C1003   1.345       .  A
N1002     Cu1008   2.074       .  S
C1003      C1004   1.382       .  A
C1003      H1006   1.082       .  S
C1004      C1005   1.382       .  A
C1005      H1007   1.082       .  S
Cu1008     N1011   2.074       .  S
Cu1009     N1019   2.072       .  S
Cu1010     N1012   2.072       .  S
Cu1010     N1018   2.072       .  S
N1011      N1012   1.323       .  A
N1011      C1015   1.345       .  A
N1012      C1013   1.345       .  A
C1013      C1014   1.382       .  A
C1013      H1016   1.082       .  S
C1014      C1015   1.382       .  A
C1015      H1017   1.082       .  S
N1018      N1019   1.323       .  A
N1018      C1022   1.345       .  A
N1019      C1020   1.345       .  A
C1020      C1021   1.381       .  A
C1020      H1023   1.082       .  S
C1021      C1075   1.464       .  S
C1021      C1022   1.381       .  A
C1022      H1024   1.082       .  S
N1025      N1026   1.323       .  A
N1025      C1029   1.345       .  A
N1025     Cu1033   2.072       .  S
N1026      C1027   1.345       .  A
N1026     Cu1032   2.074       .  S
C1027      C1028   1.382       .  A
C1027      H1030   1.082       .  S
C1028      C1029   1.382       .  A
C1029      H1031   1.082       .  S
Cu1032     N1035   2.074       .  S
Cu1033     N1043   2.072       .  S
Cu1034     N1036   2.072       .  S
Cu1034     N1042   2.072       .  S
N1035      N1036   1.323       .  A
N1035      C1039   1.345       .  A
N1036      C1037   1.345       .  A
C1037      C1038   1.382       .  A
C1037      H1040   1.082       .  S
C1038      C1039   1.382       .  A
C1039      H1041   1.082       .  S
N1042      N1043   1.323       .  A
N1042      C1046   1.345       .  A
N1043      C1044   1.345       .  A
C1044      C1045   1.381       .  A
C1044      H1047   1.082       .  S
C1045      C1074   1.464       .  S
C1045      C1046   1.381       .  A
C1046      H1048   1.082       .  S
O1049     Cu1057   2.008       .  S
O1049      C1059   1.277       .  A
O1050     Cu2161   2.008       .  S
O1050      C1060   1.277       .  A
O1051     Cu1057   2.008       .  S
O1051      C1061   1.277       .  A
O1052     Cu2161   2.008       .  S
O1052      C1062   1.277       .  A
O1053     Cu2162   2.008       .  S
O1053      C1062   1.277       .  A
O1054     Cu1058   2.008       .  S
O1054      C1061   1.277       .  A
O1055     Cu2162   2.008       .  S
O1055      C1060   1.277       .  A
O1056     Cu1058   2.008       .  S
O1056      C1059   1.277       .  A
Cu1057     O2154   2.008   1_455  S
Cu1057     O2156   2.008   1_455  S
Cu1057    Cu1058   2.378       .  S
Cu1058     O2157   2.008   1_455  S
Cu1058     O2159   2.008   1_455  S
O1063     Cu1071   2.008       .  S
O1063      C1073   1.277       .  A
O1064     Cu1071   2.008       .  S
O1064      C1074   1.277       .  A
O1065     Cu1071   2.008       .  S
O1065      C1075   1.277       .  A
O1066     Cu1071   2.008       .  S
O1066      C1076   1.277       .  A
O1067     Cu1072   2.008       .  S
O1067      C1076   1.277       .  A
O1068     Cu1072   2.008       .  S
O1068      C1075   1.277       .  A
O1069     Cu1072   2.008       .  S
O1069      C1074   1.277       .  A
O1070     Cu1072   2.008       .  S
O1070      C1073   1.277       .  A
Cu1071    Cu1072   2.378       .  S
O1077     Cu1085   2.008       .  S
O1077      C1087   1.277       .  A
O1078     Cu1085   2.008       .  S
O1078      C1088   1.277       .  A
O1079     Cu1085   2.008       .  S
O1079      C1089   1.277       .  A
O1080     Cu1085   2.008       .  S
O1080      C1090   1.277       .  A
O1081     Cu1086   2.008       .  S
O1081      C1090   1.277       .  A
O1082     Cu1086   2.008       .  S
O1082      C1089   1.277       .  A
O1083     Cu1086   2.008       .  S
O1083      C1088   1.277       .  A
O1084     Cu1086   2.008       .  S
O1084      C1087   1.277       .  A
Cu1085    Cu1086   2.378       .  S
O1091     Cu2203   2.008       .  S
O1091      C1101   1.277       .  A
O1092     Cu1099   2.008       .  S
O1092      C1102   1.277       .  A
O1093     Cu1099   2.008       .  S
O1093      C1103   1.277       .  A
O1094     Cu2203   2.008       .  S
O1094      C1104   1.277       .  A
O1095     Cu2204   2.008       .  S
O1095      C1104   1.277       .  A
O1096     Cu1100   2.008       .  S
O1096      C1103   1.277       .  A
O1097     Cu1100   2.008       .  S
O1097      C1102   1.277       .  A
O1098     Cu2204   2.008       .  S
O1098      C1101   1.277       .  A
Cu1099     O2195   2.008   1_455  S
Cu1099     O2198   2.008   1_455  S
Cu1099    Cu1100   2.378       .  S
Cu1100     O2199   2.008   1_455  S
Cu1100     O2202   2.008   1_455  S
O1105     Cu1113   2.002       .  S
O1105      C1115   1.276       .  A
O1106     Cu1113   2.017       .  S
O1106      C1116   1.278       .  A
O1107     Cu1113   2.017       .  S
O1107      C1117   1.278       .  A
O1108     Cu1113   2.002       .  S
O1108      C1118   1.276       .  A
O1109     Cu1114   2.017       .  S
O1109      C1118   1.278       .  A
O1110     Cu1114   2.002       .  S
O1110      C1117   1.276       .  A
O1111     Cu1114   2.001       .  S
O1111      C1116   1.276       .  A
O1112     Cu1114   2.017       .  S
O1112      C1115   1.278       .  A
Cu1113    Cu1114   2.377       .  S
C1115      C1274   1.466       .  S
C1116      C1246   1.466       .  S
C1117      C1160   1.466       .  S
C1118      C1374   1.466       .  S
O1119     Cu1127   2.002       .  S
O1119      C1129   1.276       .  A
O1120     Cu1127   2.017       .  S
O1120      C1130   1.278       .  A
O1121     Cu1127   2.017       .  S
O1121      C1131   1.278       .  A
O1122     Cu1127   2.002       .  S
O1122      C1132   1.276       .  A
O1123     Cu1128   2.017       .  S
O1123      C1132   1.278       .  A
O1124     Cu1128   2.002       .  S
O1124      C1131   1.276       .  A
O1125     Cu1128   2.002       .  S
O1125      C1130   1.276       .  A
O1126     Cu1128   2.017       .  S
O1126      C1129   1.278       .  A
Cu1127    Cu1128   2.377       .  S
C1129      C1212   1.466       .  S
C1130      C1308   1.466       .  S
C1131      C1350   1.466       .  S
C1132      C1184   1.466       .  S
O1133      C1143   1.276       .  A
O1134     Cu1141   2.017       .  S
O1134      C1144   1.278       .  A
O1135      C1145   1.278       .  A
O1136     Cu1141   2.002       .  S
O1136      C1146   1.276       .  A
O1137     Cu1142   2.017       .  S
O1137      C1146   1.278       .  A
O1138      C1145   1.276       .  A
O1139     Cu1142   2.002       .  S
O1139      C1144   1.276       .  A
O1140      C1143   1.278       .  A
Cu1141    Cu1142   2.377       .  S
C1143      C1150   1.466       .  S
C1144      C1590   1.466       .  S
C1145      C1556   1.466       .  S
C1146      C1174   1.466       .  S
N1147      N1148   1.323       .  A
N1147      C1151   1.345       .  A
N1147     Cu1155   2.072       .  S
N1148      C1149   1.345       .  A
N1148     Cu1154   2.074       .  S
C1149      C1150   1.382       .  A
C1149      H1152   1.082       .  S
C1150      C1151   1.382       .  A
C1151      H1153   1.082       .  S
Cu1154     N1157   2.074       .  S
Cu1155     N1165   2.072       .  S
Cu1156     N1158   2.072       .  S
Cu1156     N1164   2.072       .  S
N1157      N1158   1.323       .  A
N1157      C1161   1.345       .  A
N1158      C1159   1.345       .  A
C1159      C1160   1.382       .  A
C1159      H1162   1.082       .  S
C1160      C1161   1.382       .  A
C1161      H1163   1.082       .  S
N1164      N1165   1.323       .  A
N1164      C1168   1.345       .  A
N1165      C1166   1.345       .  A
C1166      C1167   1.381       .  A
C1166      H1169   1.082       .  S
C1167      C1642   1.464       .  S
C1167      C1168   1.381       .  A
C1168      H1170   1.082       .  S
N1171      N1172   1.323       .  A
N1171      C1175   1.345       .  A
N1171     Cu1179   2.072       .  S
N1172      C1173   1.345       .  A
N1172     Cu1178   2.074       .  S
C1173      C1174   1.382       .  A
C1173      H1176   1.082       .  S
C1174      C1175   1.382       .  A
C1175      H1177   1.082       .  S
Cu1178     N1181   2.074       .  S
Cu1179     N1189   2.072       .  S
Cu1180     N1182   2.072       .  S
Cu1180     N1188   2.072       .  S
N1181      N1182   1.323       .  A
N1181      C1185   1.345       .  A
N1182      C1183   1.345       .  A
C1183      C1184   1.382       .  A
C1183      H1186   1.082       .  S
C1184      C1185   1.382       .  A
C1185      H1187   1.082       .  S
N1188      N1189   1.323       .  A
N1188      C1192   1.345       .  A
N1189      C1190   1.345       .  A
C1190      C1191   1.381       .  A
C1190      H1193   1.082       .  S
C1191      C1640   1.464       .  S
C1191      C1192   1.381       .  A
C1192      H1194   1.082       .  S
O1195     Cu1203   2.002       .  S
O1195      C1205   1.276   1_545  A
O1196      C1758   1.278       .  A
O1197     Cu1203   2.017       .  S
O1197      C1759   1.278       .  A
O1198      C1208   1.276   1_545  A
O1199      C1760   1.278       .  A
O1200     Cu1204   2.001       .  S
O1200      C1207   1.276       .  A
O1201      C1206   1.276       .  A
O1202     Cu1204   2.017       .  S
O1202      C1757   1.278       .  A
Cu1203    Cu1756   2.377   1_545  S
Cu1204    Cu1755   2.377       .  S
C1205      O1754   1.278       .  A
C1205      C1508   1.466       .  S
C1206      O1748   1.278       .  A
C1206      C1236   1.466       .  S
C1207      O1749   1.278       .  A
C1207      C1222   1.466       .  S
C1208      O1751   1.278       .  A
C1208      C1532   1.466       .  S
N1209      N1210   1.323       .  A
N1209      C1213   1.345       .  A
N1209     Cu1217   2.072       .  S
N1210      C1211   1.345       .  A
N1210     Cu1216   2.074       .  S
C1211      C1212   1.382       .  A
C1211      H1214   1.082       .  S
C1212      C1213   1.382       .  A
C1213      H1215   1.082       .  S
Cu1216     N1219   2.074       .  S
Cu1217     N1779   2.072       .  S
Cu1218     N1220   2.072       .  S
Cu1218     N1226   2.072       .  S
N1219      N1772   1.323       .  A
N1219      C1223   1.345       .  A
N1220      N1771   1.323   1_545  A
N1220      C1221   1.345       .  A
C1221      C1774   1.382       .  A
C1221      H1224   1.082       .  S
C1222      C1773   1.382       .  A
C1222      C1223   1.382       .  A
C1223      H1225   1.082       .  S
N1226      N1227   1.323       .  A
N1226      C1230   1.345       .  A
N1227      C1228   1.345       .  A
N1227     Cu1769   2.072   1_545  S
C1228      C1229   1.381       .  A
C1228      H1231   1.082       .  S
C1229      C1641   1.464       .  S
C1229      C1230   1.381       .  A
C1230      H1232   1.082       .  S
N1233      N1786   1.323   1_545  A
N1233      C1237   1.345       .  A
N1233     Cu1241   2.072       .  S
N1234      N1785   1.323       .  A
N1234      C1235   1.345       .  A
N1234     Cu1240   2.074       .  S
C1235      C1236   1.382       .  A
C1235      H1238   1.082       .  S
C1236      C1789   1.382       .  A
C1237      C1788   1.382       .  A
C1237      H1239   1.082       .  S
Cu1240     N1243   2.074       .  S
Cu1241     N1251   2.072       .  S
Cu1242     N1244   2.072       .  S
Cu1242     N1802   2.072       .  S
N1243      N1244   1.323       .  A
N1243      C1247   1.345       .  A
N1244      C1245   1.345       .  A
C1245      C1246   1.382       .  A
C1245      H1248   1.082       .  S
C1246      C1247   1.382       .  A
C1247      H1249   1.082       .  S
N1250      N1251   1.323       .  A
N1250      C1254   1.345       .  A
N1250     Cu1794   2.072   1_545  S
N1251      C1252   1.345       .  A
C1252      C1253   1.381       .  A
C1252      H1255   1.082       .  S
C1253      C1639   1.464       .  S
C1253      C1254   1.381       .  A
C1254      H1256   1.082       .  S
O1257     Cu1265   2.017   1_554  S
O1257      C1267   1.278       .  A
O1258     Cu1265   2.002       .  S
O1258      C1268   1.276       .  A
O1259     Cu1265   2.002       .  S
O1259      C1269   1.276       .  A
O1260     Cu1265   2.017   1_554  S
O1260      C1270   1.278       .  A
O1261     Cu1266   2.001       .  S
O1261      C1270   1.276       .  A
O1262     Cu1266   2.017   1_556  S
O1262      C1269   1.278       .  A
O1263     Cu1266   2.017   1_556  S
O1263      C1268   1.278       .  A
O1264     Cu1266   2.002       .  S
O1264      C1267   1.276       .  A
Cu1265    Cu1266   2.377   1_556  S
C1267      C1484   1.466       .  S
C1268      C1284   1.466       .  S
C1269      C1298   1.466       .  S
C1270      C1470   1.466       .  S
N1271      N1272   1.323       .  A
N1271      C1275   1.345       .  A
N1271     Cu1279   2.072       .  S
N1272      C1273   1.345       .  A
N1272     Cu1278   2.074       .  S
C1273      C1274   1.382       .  A
C1273      H1276   1.082       .  S
C1274      C1275   1.382       .  A
C1275      H1277   1.082       .  S
Cu1278     N1281   2.074       .  S
Cu1279     N1289   2.072       .  S
Cu1280     N1282   2.072       .  S
Cu1280     N1288   2.072       .  S
N1281      N1282   1.323       .  A
N1281      C1285   1.345       .  A
N1282      C1283   1.345       .  A
C1283      C1284   1.382       .  A
C1283      H1286   1.082       .  S
C1284      C1285   1.382       .  A
C1285      H1287   1.082       .  S
N1288      N1289   1.323       .  A
N1288      C1292   1.345       .  A
N1289      C1290   1.345       .  A
C1290      C1291   1.381       .  A
C1290      H1293   1.082       .  S
C1291      C1653   1.464       .  S
C1291      C1292   1.381       .  A
C1292      H1294   1.082       .  S
N1295      N1296   1.323       .  A
N1295      C1299   1.345       .  A
N1295     Cu1303   2.072       .  S
N1296      C1297   1.345       .  A
N1296     Cu1302   2.074       .  S
C1297      C1298   1.382       .  A
C1297      H1300   1.082       .  S
C1298      C1299   1.382       .  A
C1299      H1301   1.082       .  S
Cu1302     N1305   2.074       .  S
Cu1303     N1313   2.072       .  S
Cu1304     N1306   2.072       .  S
Cu1304     N1312   2.072       .  S
N1305      N1306   1.323       .  A
N1305      C1309   1.345       .  A
N1306      C1307   1.345       .  A
C1307      C1308   1.382       .  A
C1307      H1310   1.082       .  S
C1308      C1309   1.382       .  A
C1309      H1311   1.082       .  S
N1312      N1313   1.323       .  A
N1312      C1316   1.345       .  A
N1313      C1314   1.345       .  A
C1314      C1315   1.381       .  A
C1314      H1317   1.082       .  S
C1315      C1655   1.464       .  S
C1315      C1316   1.381       .  A
C1316      H1318   1.082       .  S
O1319     Cu1327   2.017       .  S
O1319      C1329   1.278       .  A
O1320     Cu1327   2.002       .  S
O1320      C1330   1.276       .  A
O1321     Cu1327   2.002       .  S
O1321      C1331   1.276       .  A
O1322     Cu1327   2.017       .  S
O1322      C1332   1.278       .  A
O1323     Cu1328   2.002       .  S
O1323      C1332   1.276       .  A
O1324     Cu1328   2.017       .  S
O1324      C1331   1.278       .  A
O1325     Cu1328   2.017       .  S
O1325      C1330   1.278       .  A
O1326     Cu1328   2.001       .  S
O1326      C1329   1.276       .  A
Cu1327    Cu1328   2.377       .  S
C1329      C1542   1.466       .  S
C1330      C1460   1.466       .  S
C1331      C1446   1.466       .  S
C1332      C1566   1.466       .  S
O1333     Cu1341   2.017   1_556  S
O1333      C1343   1.278       .  A
O1334     Cu1341   2.002       .  S
O1334      C1344   1.276   1_545  A
O1335     Cu1341   2.002       .  S
O1335      C1345   1.276   1_545  A
O1336     Cu1341   2.017   1_556  S
O1336      C1898   1.278       .  A
O1337     Cu1342   2.002       .  S
O1337      C1346   1.276       .  A
O1338     Cu1342   2.017   1_554  S
O1338      C1897   1.278       .  A
O1339     Cu1342   2.017   1_554  S
O1339      C1896   1.278       .  A
O1340     Cu1342   2.002       .  S
O1340      C1895   1.276       .  A
Cu1341    Cu1894   2.377   1_544  S
Cu1342    Cu1893   2.377   1_556  S
C1343      O1892   1.276   1_545  A
C1343      C1936   1.466       .  S
C1344      O1891   1.278       .  A
C1344      C1412   1.466       .  S
C1345      O1890   1.278       .  A
C1345      C1436   1.466       .  S
C1346      O1888   1.278       .  A
C1346      C1360   1.466       .  S
N1347      N1348   1.323       .  A
N1347      C1351   1.345       .  A
N1347     Cu1355   2.072       .  S
N1348      C1349   1.345       .  A
N1348     Cu1354   2.074       .  S
C1349      C1350   1.382       .  A
C1349      H1352   1.082       .  S
C1350      C1351   1.382       .  A
C1351      H1353   1.082       .  S
Cu1354     N1357   2.074       .  S
Cu1355     N1917   2.072       .  S
Cu1356     N1358   2.072       .  S
Cu1356     N1364   2.072       .  S
N1357      N1910   1.323       .  A
N1357      C1361   1.345       .  A
N1358      N1909   1.323   1_545  A
N1358      C1359   1.345       .  A
C1359      C1912   1.382       .  A
C1359      H1362   1.082       .  S
C1360      C1911   1.382       .  A
C1360      C1361   1.382       .  A
C1361      H1363   1.082       .  S
N1364      N1365   1.323       .  A
N1364      C1368   1.345       .  A
N1365      C1366   1.345       .  A
N1365     Cu1907   2.072   1_545  S
C1366      C1367   1.381       .  A
C1366      H1369   1.082       .  S
C1367      C1654   1.464       .  S
C1367      C1368   1.381       .  A
C1368      H1370   1.082       .  S
N1371      N1372   1.323       .  A
N1371      C1375   1.345       .  A
N1371     Cu1379   2.072       .  S
N1372      C1373   1.345       .  A
N1372     Cu1378   2.074       .  S
C1373      C1374   1.382       .  A
C1373      H1376   1.082       .  S
C1374      C1375   1.382       .  A
C1375      H1377   1.082       .  S
Cu1378     N1381   2.074       .  S
Cu1379     N1941   2.072       .  S
Cu1380     N1382   2.072       .  S
Cu1380     N1388   2.072       .  S
N1381      N1934   1.323       .  A
N1381      C1385   1.345       .  A
N1382      N1933   1.323   1_545  A
N1382      C1383   1.345       .  A
C1383      C1936   1.382       .  A
C1383      H1386   1.082       .  S
C1384      C1895   1.466       .  S
C1384      C1935   1.382       .  A
C1384      C1385   1.382       .  A
C1385      H1387   1.082       .  S
N1388      N1389   1.323       .  A
N1388      C1392   1.345       .  A
N1389      C1390   1.345       .  A
N1389     Cu1931   2.072   1_545  S
C1390      C1391   1.381       .  A
C1390      H1393   1.082       .  S
C1391      C1656   1.464       .  S
C1391      C1392   1.381       .  A
C1392      H1394   1.082       .  S
O1395     Cu1403   2.002       .  S
O1395      C1405   1.276       .  A
O1396     Cu1403   2.017       .  S
O1396      C1406   1.278       .  A
O1397     Cu1403   2.017       .  S
O1397      C1407   1.278       .  A
O1398     Cu1403   2.002       .  S
O1398      C1408   1.276       .  A
O1399     Cu1404   2.017       .  S
O1399      C1408   1.278       .  A
O1400     Cu1404   2.002       .  S
O1400      C1407   1.276       .  A
O1401     Cu1404   2.002       .  S
O1401      C1406   1.276       .  A
O1402     Cu1404   2.017       .  S
O1402      C1405   1.278       .  A
Cu1403    Cu1404   2.377       .  S
C1405      C1422   1.466       .  S
C1406      C1580   1.466       .  S
C1407      C1518   1.466       .  S
C1408      C1494   1.466       .  S
N1409      N1962   1.323       .  A
N1409      C1413   1.345       .  A
N1409     Cu1417   2.072       .  S
N1410      N1961   1.323   1_545  A
N1410      C1411   1.345       .  A
N1410     Cu1416   2.074       .  S
C1411      C1412   1.382   1_545  A
C1411      H1414   1.082       .  S
C1412      C1965   1.382       .  A
C1413      C1964   1.382       .  A
C1413      H1415   1.082       .  S
Cu1416     N1419   2.074       .  S
Cu1417     N1427   2.072       .  S
Cu1418     N1420   2.072       .  S
Cu1418     N1978   2.072   1_545  S
N1419      N1420   1.323       .  A
N1419      C1423   1.345       .  A
N1420      C1421   1.345       .  A
C1421      C1422   1.382       .  A
C1421      H1424   1.082       .  S
C1422      C1423   1.382       .  A
C1423      H1425   1.082       .  S
N1426      N1427   1.323       .  A
N1426      C1430   1.345       .  A
N1426     Cu1970   2.072       .  S
N1427      C1428   1.345       .  A
C1428      C1429   1.381       .  A
C1428      H1431   1.082       .  S
C1429      C1611   1.464       .  S
C1429      C1430   1.381       .  A
C1430      H1432   1.082       .  S
N1433      N1986   1.323       .  A
N1433      C1437   1.345       .  A
N1433     Cu1441   2.072       .  S
N1434      N1985   1.323   1_545  A
N1434      C1435   1.345       .  A
N1434     Cu1440   2.074       .  S
C1435      C1436   1.382   1_545  A
C1435      H1438   1.082       .  S
C1436      C1989   1.382       .  A
C1437      C1988   1.382       .  A
C1437      H1439   1.082       .  S
Cu1440     N1443   2.074       .  S
Cu1441     N1451   2.072       .  S
Cu1442     N1444   2.072       .  S
Cu1442     N2002   2.072   1_545  S
N1443      N1444   1.323       .  A
N1443      C1447   1.345       .  A
N1444      C1445   1.345       .  A
C1445      C1446   1.382       .  A
C1445      H1448   1.082       .  S
C1446      C1447   1.382       .  A
C1447      H1449   1.082       .  S
N1450      N1451   1.323       .  A
N1450      C1454   1.345       .  A
N1450     Cu1994   2.072       .  S
N1451      C1452   1.345       .  A
C1452      C1453   1.381       .  A
C1452      H1455   1.082       .  S
C1453      C1614   1.464       .  S
C1453      C1454   1.381       .  A
C1454      H1456   1.082       .  S
N1457      N1458   1.323       .  A
N1457      C1461   1.345       .  A
N1457     Cu1465   2.072       .  S
N1458      C1459   1.345       .  A
N1458     Cu1464   2.074       .  S
C1459      C1460   1.382       .  A
C1459      H1462   1.082       .  S
C1460      C1461   1.382       .  A
C1461      H1463   1.082       .  S
Cu1464     N1467   2.074       .  S
Cu1465     N1475   2.072       .  S
Cu1466     N1468   2.072       .  S
Cu1466     N1474   2.072       .  S
N1467      N1468   1.323       .  A
N1467      C1471   1.345       .  A
N1468      C1469   1.345       .  A
C1469      C1470   1.382       .  A
C1469      H1472   1.082       .  S
C1470      C1471   1.382       .  A
C1471      H1473   1.082       .  S
N1474      N1475   1.323       .  A
N1474      C1478   1.345       .  A
N1475      C1476   1.345       .  A
C1476      C1477   1.381       .  A
C1476      H1479   1.082       .  S
C1477      C1612   1.464       .  S
C1477      C1478   1.381       .  A
C1478      H1480   1.082       .  S
N1481      N1482   1.323       .  A
N1481      C1485   1.345       .  A
N1481     Cu1489   2.072       .  S
N1482      C1483   1.345       .  A
N1482     Cu1488   2.074       .  S
C1483      C1484   1.382       .  A
C1483      H1486   1.082       .  S
C1484      C1485   1.382       .  A
C1485      H1487   1.082       .  S
Cu1488     N1491   2.074       .  S
Cu1489     N1499   2.072       .  S
Cu1490     N1492   2.072       .  S
Cu1490     N1498   2.072       .  S
N1491      N1492   1.323       .  A
N1491      C1495   1.345       .  A
N1492      C1493   1.345       .  A
C1493      C1494   1.382       .  A
C1493      H1496   1.082       .  S
C1494      C1495   1.382       .  A
C1495      H1497   1.082       .  S
N1498      N1499   1.323       .  A
N1498      C1502   1.345       .  A
N1499      C1500   1.345       .  A
C1500      C1501   1.381       .  A
C1500      H1503   1.082       .  S
C1501      C1613   1.464       .  S
C1501      C1502   1.381       .  A
C1502      H1504   1.082       .  S
N1505      N2058   1.323       .  A
N1505      C1509   1.345       .  A
N1505     Cu1513   2.072       .  S
N1506      N2057   1.323   1_545  A
N1506      C1507   1.345       .  A
N1506     Cu1512   2.074       .  S
C1507      C1508   1.382   1_545  A
C1507      H1510   1.082       .  S
C1508      C2061   1.382       .  A
C1509      C2060   1.382       .  A
C1509      H1511   1.082       .  S
Cu1512     N1515   2.074       .  S
Cu1513     N1523   2.072       .  S
Cu1514     N1516   2.072       .  S
Cu1514     N2074   2.072   1_545  S
N1515      N1516   1.323       .  A
N1515      C1519   1.345       .  A
N1516      C1517   1.345       .  A
C1517      C1518   1.382       .  A
C1517      H1520   1.082       .  S
C1518      C1519   1.382       .  A
C1519      H1521   1.082       .  S
N1522      N1523   1.323       .  A
N1522      C1526   1.345       .  A
N1522     Cu2066   2.072       .  S
N1523      C1524   1.345       .  A
C1524      C1525   1.381       .  A
C1524      H1527   1.082       .  S
C1525      C1628   1.464       .  S
C1525      C1526   1.381       .  A
C1526      H1528   1.082       .  S
N1529      N2082   1.323       .  A
N1529      C1533   1.345       .  A
N1529     Cu1537   2.072       .  S
N1530      N2081   1.323   1_545  A
N1530      C1531   1.345       .  A
N1530     Cu1536   2.074       .  S
C1531      C1532   1.382   1_545  A
C1531      H1534   1.082       .  S
C1532      C2085   1.382       .  A
C1533      C2084   1.382       .  A
C1533      H1535   1.082       .  S
Cu1536     N1539   2.074       .  S
Cu1537     N1547   2.072       .  S
Cu1538     N1540   2.072       .  S
Cu1538     N2098   2.072   1_545  S
N1539      N1540   1.323       .  A
N1539      C1543   1.345       .  A
N1540      C1541   1.345       .  A
C1541      C1542   1.382       .  A
C1541      H1544   1.082       .  S
C1542      C1543   1.382       .  A
C1543      H1545   1.082       .  S
N1546      N1547   1.323       .  A
N1546      C1550   1.345       .  A
N1546     Cu2090   2.072       .  S
N1547      C1548   1.345       .  A
C1548      C1549   1.381       .  A
C1548      H1551   1.082       .  S
C1549      C1625   1.464       .  S
C1549      C1550   1.381       .  A
C1550      H1552   1.082       .  S
N1553      N1554   1.323       .  A
N1553      C1557   1.345       .  A
N1553     Cu1561   2.072       .  S
N1554      C1555   1.345       .  A
N1554     Cu1560   2.074       .  S
C1555      C1556   1.382       .  A
C1555      H1558   1.082       .  S
C1556      C1557   1.382       .  A
C1557      H1559   1.082       .  S
Cu1560     N1563   2.074       .  S
Cu1561     N1571   2.072       .  S
Cu1562     N1564   2.072       .  S
Cu1562     N1570   2.072       .  S
N1563      N1564   1.323       .  A
N1563      C1567   1.345       .  A
N1564      C1565   1.345       .  A
C1565      C1566   1.382       .  A
C1565      H1568   1.082       .  S
C1566      C1567   1.382       .  A
C1567      H1569   1.082       .  S
N1570      N1571   1.323       .  A
N1570      C1574   1.345       .  A
N1571      C1572   1.345       .  A
C1572      C1573   1.381       .  A
C1572      H1575   1.082       .  S
C1573      C1627   1.464       .  S
C1573      C1574   1.381       .  A
C1574      H1576   1.082       .  S
N1577      N1578   1.323       .  A
N1577      C1581   1.345       .  A
N1577     Cu1585   2.072       .  S
N1578      C1579   1.345       .  A
N1578     Cu1584   2.074       .  S
C1579      C1580   1.382       .  A
C1579      H1582   1.082       .  S
C1580      C1581   1.382       .  A
C1581      H1583   1.082       .  S
Cu1584     N1587   2.074       .  S
Cu1585     N1595   2.072       .  S
Cu1586     N1588   2.072       .  S
Cu1586     N1594   2.072       .  S
N1587      N1588   1.323       .  A
N1587      C1591   1.345       .  A
N1588      C1589   1.345       .  A
C1589      C1590   1.382       .  A
C1589      H1592   1.082       .  S
C1590      C1591   1.382       .  A
C1591      H1593   1.082       .  S
N1594      N1595   1.323       .  A
N1594      C1598   1.345       .  A
N1595      C1596   1.345       .  A
C1596      C1597   1.381       .  A
C1596      H1599   1.082       .  S
C1597      C1626   1.464       .  S
C1597      C1598   1.381       .  A
C1598      H1600   1.082       .  S
O1601     Cu1609   2.008       .  S
O1601      C1611   1.277       .  A
O1602      C1612   1.277       .  A
O1603     Cu1609   2.008       .  S
O1603      C1613   1.277       .  A
O1604      C1614   1.277       .  A
O1605      C1614   1.277       .  A
O1606     Cu1610   2.008       .  S
O1606      C1613   1.277       .  A
O1607      C1612   1.277       .  A
O1608     Cu1610   2.008       .  S
O1608      C1611   1.277       .  A
Cu1609    Cu1610   2.378       .  S
O1615     Cu1623   2.008       .  S
O1615      C1625   1.277       .  A
O1616     Cu1623   2.008       .  S
O1616      C1626   1.277       .  A
O1617     Cu1623   2.008       .  S
O1617      C1627   1.277       .  A
O1618     Cu1623   2.008       .  S
O1618      C1628   1.277       .  A
O1619     Cu1624   2.008       .  S
O1619      C1628   1.277       .  A
O1620     Cu1624   2.008       .  S
O1620      C1627   1.277       .  A
O1621     Cu1624   2.008       .  S
O1621      C1626   1.277       .  A
O1622     Cu1624   2.008       .  S
O1622      C1625   1.277       .  A
Cu1623    Cu1624   2.378       .  S
O1629     Cu1637   2.008       .  S
O1629      C1639   1.277       .  A
O1630     Cu1637   2.008       .  S
O1630      C1640   1.277       .  A
O1631     Cu1637   2.008       .  S
O1631      C1641   1.277       .  A
O1632     Cu1637   2.008       .  S
O1632      C1642   1.277       .  A
O1633     Cu1638   2.008       .  S
O1633      C1642   1.277       .  A
O1634     Cu1638   2.008       .  S
O1634      C1641   1.277       .  A
O1635     Cu1638   2.008       .  S
O1635      C1640   1.277       .  A
O1636     Cu1638   2.008       .  S
O1636      C1639   1.277       .  A
Cu1637    Cu1638   2.378       .  S
O1643      C1653   1.277       .  A
O1644     Cu1651   2.008       .  S
O1644      C1654   1.277       .  A
O1645     Cu1651   2.008       .  S
O1645      C1655   1.277       .  A
O1646      C1656   1.277       .  A
O1647      C1656   1.277       .  A
O1648     Cu1652   2.008       .  S
O1648      C1655   1.277       .  A
O1649     Cu1652   2.008       .  S
O1649      C1654   1.277       .  A
O1650      C1653   1.277       .  A
Cu1651    Cu1652   2.378       .  S
O1657     Cu1665   2.002       .  S
O1657      C1667   1.276       .  A
O1658     Cu1665   2.017       .  S
O1658      C1668   1.278       .  A
O1659     Cu1665   2.017       .  S
O1659      C1669   1.278       .  A
O1660     Cu1665   2.002       .  S
O1660      C1670   1.276       .  A
O1661     Cu1666   2.017       .  S
O1661      C1670   1.278       .  A
O1662     Cu1666   2.002       .  S
O1662      C1669   1.276       .  A
O1663     Cu1666   2.002       .  S
O1663      C1668   1.276       .  A
O1664     Cu1666   2.017       .  S
O1664      C1667   1.278       .  A
Cu1665    Cu1666   2.377       .  S
C1667      C1826   1.466       .  S
C1668      C1798   1.466       .  S
C1669      C1712   1.466       .  S
C1670      C1926   1.466       .  S
O1671     Cu1679   2.002       .  S
O1671      C1681   1.276       .  A
O1672     Cu1679   2.017       .  S
O1672      C1682   1.278       .  A
O1673     Cu1679   2.017       .  S
O1673      C1683   1.278       .  A
O1674     Cu1679   2.002       .  S
O1674      C1684   1.276       .  A
O1675     Cu1680   2.017       .  S
O1675      C1684   1.278       .  A
O1676     Cu1680   2.002       .  S
O1676      C1683   1.276       .  A
O1677     Cu1680   2.002       .  S
O1677      C1682   1.276       .  A
O1678     Cu1680   2.017       .  S
O1678      C1681   1.278       .  A
Cu1679    Cu1680   2.377       .  S
C1681      C1764   1.466       .  S
C1682      C1860   1.466       .  S
C1683      C1902   1.466       .  S
C1684      C1736   1.466       .  S
O1685      C1695   1.276       .  A
O1686     Cu1693   2.017       .  S
O1686      C1696   1.278       .  A
O1687      C1697   1.278       .  A
O1688     Cu1693   2.002       .  S
O1688      C1698   1.276       .  A
O1689     Cu1694   2.017       .  S
O1689      C1698   1.278       .  A
O1690      C1697   1.276       .  A
O1691     Cu1694   2.002       .  S
O1691      C1696   1.276       .  A
O1692      C1695   1.278       .  A
Cu1693    Cu1694   2.377       .  S
C1695      C1702   1.466       .  S
C1696      C2142   1.466       .  S
C1697      C2108   1.466       .  S
C1698      C1726   1.466       .  S
N1699      N1700   1.323       .  A
N1699      C1703   1.345       .  A
N1699     Cu1707   2.072       .  S
N1700      C1701   1.345       .  A
N1700     Cu1706   2.074       .  S
C1701      C1702   1.382       .  A
C1701      H1704   1.082       .  S
C1702      C1703   1.382       .  A
C1703      H1705   1.082       .  S
Cu1706     N1709   2.074       .  S
Cu1707     N1717   2.072       .  S
Cu1708     N1710   2.072       .  S
Cu1708     N1716   2.072       .  S
N1709      N1710   1.323       .  A
N1709      C1713   1.345       .  A
N1710      C1711   1.345       .  A
C1711      C1712   1.382       .  A
C1711      H1714   1.082       .  S
C1712      C1713   1.382       .  A
C1713      H1715   1.082       .  S
N1716      N1717   1.323       .  A
N1716      C1720   1.345       .  A
N1717      C1718   1.345       .  A
C1718      C1719   1.381       .  A
C1718      H1721   1.082       .  S
C1719      C2194   1.464       .  S
C1719      C1720   1.381       .  A
C1720      H1722   1.082       .  S
N1723      N1724   1.323       .  A
N1723      C1727   1.345       .  A
N1723     Cu1731   2.072       .  S
N1724      C1725   1.345       .  A
N1724     Cu1730   2.074       .  S
C1725      C1726   1.382       .  A
C1725      H1728   1.082       .  S
C1726      C1727   1.382       .  A
C1727      H1729   1.082       .  S
Cu1730     N1733   2.074       .  S
Cu1731     N1741   2.072       .  S
Cu1732     N1734   2.072       .  S
Cu1732     N1740   2.072       .  S
N1733      N1734   1.323       .  A
N1733      C1737   1.345       .  A
N1734      C1735   1.345       .  A
C1735      C1736   1.382       .  A
C1735      H1738   1.082       .  S
C1736      C1737   1.382       .  A
C1737      H1739   1.082       .  S
N1740      N1741   1.323       .  A
N1740      C1744   1.345       .  A
N1741      C1742   1.345       .  A
C1742      C1743   1.381       .  A
C1742      H1745   1.082       .  S
C1743      C2192   1.464       .  S
C1743      C1744   1.381       .  A
C1744      H1746   1.082       .  S
O1747     Cu1755   2.002       .  S
O1747      C1757   1.276       .  A
O1749     Cu1755   2.017       .  S
O1750      C1760   1.276       .  A
O1752     Cu1756   2.001       .  S
O1752      C1759   1.276   1_565  A
O1753      C1758   1.276   1_565  A
O1754     Cu1756   2.017       .  S
C1757      C2060   1.466       .  S
C1758      C1788   1.466       .  S
C1759      C1774   1.466       .  S
C1760      C2084   1.466       .  S
N1761      N1762   1.323       .  A
N1761      C1765   1.345       .  A
N1761     Cu1769   2.072       .  S
N1762      C1763   1.345       .  A
N1762     Cu1768   2.074       .  S
C1763      C1764   1.382       .  A
C1763      H1766   1.082       .  S
C1764      C1765   1.382       .  A
C1765      H1767   1.082       .  S
Cu1768     N1771   2.074       .  S
Cu1770     N1772   2.072       .  S
Cu1770     N1778   2.072       .  S
N1771      C1775   1.345       .  A
N1772      C1773   1.345       .  A
C1773      H1776   1.082       .  S
C1774      C1775   1.382   1_545  A
C1775      H1777   1.082       .  S
N1778      N1779   1.323       .  A
N1778      C1782   1.345       .  A
N1779      C1780   1.345       .  A
C1780      C1781   1.381       .  A
C1780      H1783   1.082       .  S
C1781      C2193   1.464       .  S
C1781      C1782   1.381       .  A
C1782      H1784   1.082       .  S
N1785      C1789   1.345       .  A
N1785     Cu1793   2.072       .  S
N1786      C1787   1.345       .  A
N1786     Cu1792   2.074       .  S
C1787      C1788   1.382   1_565  A
C1787      H1790   1.082       .  S
C1789      H1791   1.082       .  S
Cu1792     N1795   2.074       .  S
Cu1793     N1803   2.072       .  S
Cu1794     N1796   2.072       .  S
N1795      N1796   1.323       .  A
N1795      C1799   1.345       .  A
N1796      C1797   1.345       .  A
C1797      C1798   1.382       .  A
C1797      H1800   1.082       .  S
C1798      C1799   1.382       .  A
C1799      H1801   1.082       .  S
N1802      N1803   1.323       .  A
N1802      C1806   1.345       .  A
N1803      C1804   1.345       .  A
C1804      C1805   1.381       .  A
C1804      H1807   1.082       .  S
C1805      C2191   1.464       .  S
C1805      C1806   1.381       .  A
C1806      H1808   1.082       .  S
O1809     Cu1817   2.017   1_554  S
O1809      C1819   1.278       .  A
O1810     Cu1817   2.002       .  S
O1810      C1820   1.276       .  A
O1811     Cu1817   2.002       .  S
O1811      C1821   1.276       .  A
O1812     Cu1817   2.017   1_554  S
O1812      C1822   1.278       .  A
O1813     Cu1818   2.001       .  S
O1813      C1822   1.276       .  A
O1814     Cu1818   2.017   1_556  S
O1814      C1821   1.278       .  A
O1815     Cu1818   2.017   1_556  S
O1815      C1820   1.278       .  A
O1816     Cu1818   2.002       .  S
O1816      C1819   1.276       .  A
Cu1817    Cu1818   2.377   1_556  S
C1819      C2036   1.466       .  S
C1820      C1836   1.466       .  S
C1821      C1850   1.466       .  S
C1822      C2022   1.466       .  S
N1823      N1824   1.323       .  A
N1823      C1827   1.345       .  A
N1823     Cu1831   2.072       .  S
N1824      C1825   1.345       .  A
N1824     Cu1830   2.074       .  S
C1825      C1826   1.382       .  A
C1825      H1828   1.082       .  S
C1826      C1827   1.382       .  A
C1827      H1829   1.082       .  S
Cu1830     N1833   2.074       .  S
Cu1831     N1841   2.072       .  S
Cu1832     N1834   2.072       .  S
Cu1832     N1840   2.072       .  S
N1833      N1834   1.323       .  A
N1833      C1837   1.345       .  A
N1834      C1835   1.345       .  A
C1835      C1836   1.382       .  A
C1835      H1838   1.082       .  S
C1836      C1837   1.382       .  A
C1837      H1839   1.082       .  S
N1840      N1841   1.323       .  A
N1840      C1844   1.345       .  A
N1841      C1842   1.345       .  A
C1842      C1843   1.381       .  A
C1842      H1845   1.082       .  S
C1843      C2205   1.464       .  S
C1843      C1844   1.381       .  A
C1844      H1846   1.082       .  S
N1847      N1848   1.323       .  A
N1847      C1851   1.345       .  A
N1847     Cu1855   2.072       .  S
N1848      C1849   1.345       .  A
N1848     Cu1854   2.074       .  S
C1849      C1850   1.382       .  A
C1849      H1852   1.082       .  S
C1850      C1851   1.382       .  A
C1851      H1853   1.082       .  S
Cu1854     N1857   2.074       .  S
Cu1855     N1865   2.072       .  S
Cu1856     N1858   2.072       .  S
Cu1856     N1864   2.072       .  S
N1857      N1858   1.323       .  A
N1857      C1861   1.345       .  A
N1858      C1859   1.345       .  A
C1859      C1860   1.382       .  A
C1859      H1862   1.082       .  S
C1860      C1861   1.382       .  A
C1861      H1863   1.082       .  S
N1864      N1865   1.323       .  A
N1864      C1868   1.345       .  A
N1865      C1866   1.345       .  A
C1866      C1867   1.381       .  A
C1866      H1869   1.082       .  S
C1867      C2207   1.464       .  S
C1867      C1868   1.381       .  A
C1868      H1870   1.082       .  S
O1871     Cu1879   2.017       .  S
O1871      C1881   1.278       .  A
O1872     Cu1879   2.002       .  S
O1872      C1882   1.276       .  A
O1873     Cu1879   2.002       .  S
O1873      C1883   1.276       .  A
O1874     Cu1879   2.017       .  S
O1874      C1884   1.278       .  A
O1875     Cu1880   2.002       .  S
O1875      C1884   1.276       .  A
O1876     Cu1880   2.017       .  S
O1876      C1883   1.278       .  A
O1877     Cu1880   2.017       .  S
O1877      C1882   1.278       .  A
O1878     Cu1880   2.001       .  S
O1878      C1881   1.276       .  A
Cu1879    Cu1880   2.377       .  S
C1881      C2094   1.466       .  S
C1882      C2012   1.466       .  S
C1883      C1998   1.466       .  S
C1884      C2118   1.466       .  S
O1885     Cu1893   2.017   1_556  S
O1885      C1895   1.278       .  A
O1886     Cu1893   2.002       .  S
O1886      C1896   1.276       .  A
O1887     Cu1893   2.002       .  S
O1887      C1897   1.276       .  A
O1888     Cu1893   2.017   1_556  S
O1889     Cu1894   2.002       .  S
O1889      C1898   1.276   1_565  A
O1890     Cu1894   2.017   1_554  S
O1891     Cu1894   2.017   1_554  S
O1892     Cu1894   2.002       .  S
C1896      C1964   1.466       .  S
C1897      C1988   1.466       .  S
C1898      C1912   1.466       .  S
N1899      N1900   1.323       .  A
N1899      C1903   1.345       .  A
N1899     Cu1907   2.072       .  S
N1900      C1901   1.345       .  A
N1900     Cu1906   2.074       .  S
C1901      C1902   1.382       .  A
C1901      H1904   1.082       .  S
C1902      C1903   1.382       .  A
C1903      H1905   1.082       .  S
Cu1906     N1909   2.074       .  S
Cu1908     N1910   2.072       .  S
Cu1908     N1916   2.072       .  S
N1909      C1913   1.345       .  A
N1910      C1911   1.345       .  A
C1911      H1914   1.082       .  S
C1912      C1913   1.382   1_545  A
C1913      H1915   1.082       .  S
N1916      N1917   1.323       .  A
N1916      C1920   1.345       .  A
N1917      C1918   1.345       .  A
C1918      C1919   1.381       .  A
C1918      H1921   1.082       .  S
C1919      C2206   1.464       .  S
C1919      C1920   1.381       .  A
C1920      H1922   1.082       .  S
N1923      N1924   1.323       .  A
N1923      C1927   1.345       .  A
N1923     Cu1931   2.072       .  S
N1924      C1925   1.345       .  A
N1924     Cu1930   2.074       .  S
C1925      C1926   1.382       .  A
C1925      H1928   1.082       .  S
C1926      C1927   1.382       .  A
C1927      H1929   1.082       .  S
Cu1930     N1933   2.074       .  S
Cu1932     N1934   2.072       .  S
Cu1932     N1940   2.072       .  S
N1933      C1937   1.345       .  A
N1934      C1935   1.345       .  A
C1935      H1938   1.082       .  S
C1936      C1937   1.382   1_545  A
C1937      H1939   1.082       .  S
N1940      N1941   1.323       .  A
N1940      C1944   1.345       .  A
N1941      C1942   1.345       .  A
C1942      C1943   1.381       .  A
C1942      H1945   1.082       .  S
C1943      C2208   1.464       .  S
C1943      C1944   1.381       .  A
C1944      H1946   1.082       .  S
O1947     Cu1955   2.002       .  S
O1947      C1957   1.276       .  A
O1948     Cu1955   2.017       .  S
O1948      C1958   1.278       .  A
O1949     Cu1955   2.017       .  S
O1949      C1959   1.278       .  A
O1950     Cu1955   2.002       .  S
O1950      C1960   1.276       .  A
O1951     Cu1956   2.017       .  S
O1951      C1960   1.278       .  A
O1952     Cu1956   2.002       .  S
O1952      C1959   1.276       .  A
O1953     Cu1956   2.002       .  S
O1953      C1958   1.276       .  A
O1954     Cu1956   2.017       .  S
O1954      C1957   1.278       .  A
Cu1955    Cu1956   2.377       .  S
C1957      C1974   1.466       .  S
C1958      C2132   1.466       .  S
C1959      C2070   1.466       .  S
C1960      C2046   1.466       .  S
N1961      C1965   1.345       .  A
N1961     Cu1969   2.072       .  S
N1962      C1963   1.345       .  A
N1962     Cu1968   2.074       .  S
C1963      C1964   1.382       .  A
C1963      H1966   1.082       .  S
C1965      H1967   1.082       .  S
Cu1968     N1971   2.074       .  S
Cu1969     N1979   2.072       .  S
Cu1970     N1972   2.072       .  S
N1971      N1972   1.323       .  A
N1971      C1975   1.345       .  A
N1972      C1973   1.345       .  A
C1973      C1974   1.382       .  A
C1973      H1976   1.082       .  S
C1974      C1975   1.382       .  A
C1975      H1977   1.082       .  S
N1978      N1979   1.323       .  A
N1978      C1982   1.345       .  A
N1979      C1980   1.345       .  A
C1980      C1981   1.381       .  A
C1980      H1983   1.082       .  S
C1981      C2163   1.464       .  S
C1981      C1982   1.381       .  A
C1982      H1984   1.082       .  S
N1985      C1989   1.345       .  A
N1985     Cu1993   2.072       .  S
N1986      C1987   1.345       .  A
N1986     Cu1992   2.074       .  S
C1987      C1988   1.382       .  A
C1987      H1990   1.082       .  S
C1989      H1991   1.082       .  S
Cu1992     N1995   2.074       .  S
Cu1993     N2003   2.072       .  S
Cu1994     N1996   2.072       .  S
N1995      N1996   1.323       .  A
N1995      C1999   1.345       .  A
N1996      C1997   1.345       .  A
C1997      C1998   1.382       .  A
C1997      H2000   1.082       .  S
C1998      C1999   1.382       .  A
C1999      H2001   1.082       .  S
N2002      N2003   1.323       .  A
N2002      C2006   1.345       .  A
N2003      C2004   1.345       .  A
C2004      C2005   1.381       .  A
C2004      H2007   1.082       .  S
C2005      C2166   1.464       .  S
C2005      C2006   1.381       .  A
C2006      H2008   1.082       .  S
N2009      N2010   1.323       .  A
N2009      C2013   1.345       .  A
N2009     Cu2017   2.072       .  S
N2010      C2011   1.345       .  A
N2010     Cu2016   2.074       .  S
C2011      C2012   1.382       .  A
C2011      H2014   1.082       .  S
C2012      C2013   1.382       .  A
C2013      H2015   1.082       .  S
Cu2016     N2019   2.074       .  S
Cu2017     N2027   2.072       .  S
Cu2018     N2020   2.072       .  S
Cu2018     N2026   2.072       .  S
N2019      N2020   1.323       .  A
N2019      C2023   1.345       .  A
N2020      C2021   1.345       .  A
C2021      C2022   1.382       .  A
C2021      H2024   1.082       .  S
C2022      C2023   1.382       .  A
C2023      H2025   1.082       .  S
N2026      N2027   1.323       .  A
N2026      C2030   1.345       .  A
N2027      C2028   1.345       .  A
C2028      C2029   1.381       .  A
C2028      H2031   1.082       .  S
C2029      C2164   1.464       .  S
C2029      C2030   1.381       .  A
C2030      H2032   1.082       .  S
N2033      N2034   1.323       .  A
N2033      C2037   1.345       .  A
N2033     Cu2041   2.072       .  S
N2034      C2035   1.345       .  A
N2034     Cu2040   2.074       .  S
C2035      C2036   1.382       .  A
C2035      H2038   1.082       .  S
C2036      C2037   1.382       .  A
C2037      H2039   1.082       .  S
Cu2040     N2043   2.074       .  S
Cu2041     N2051   2.072       .  S
Cu2042     N2044   2.072       .  S
Cu2042     N2050   2.072       .  S
N2043      N2044   1.323       .  A
N2043      C2047   1.345       .  A
N2044      C2045   1.345       .  A
C2045      C2046   1.382       .  A
C2045      H2048   1.082       .  S
C2046      C2047   1.382       .  A
C2047      H2049   1.082       .  S
N2050      N2051   1.323       .  A
N2050      C2054   1.345       .  A
N2051      C2052   1.345       .  A
C2052      C2053   1.381       .  A
C2052      H2055   1.082       .  S
C2053      C2165   1.464       .  S
C2053      C2054   1.381       .  A
C2054      H2056   1.082       .  S
N2057      C2061   1.345       .  A
N2057     Cu2065   2.072       .  S
N2058      C2059   1.345       .  A
N2058     Cu2064   2.074       .  S
C2059      C2060   1.382       .  A
C2059      H2062   1.082       .  S
C2061      H2063   1.082       .  S
Cu2064     N2067   2.074       .  S
Cu2065     N2075   2.072       .  S
Cu2066     N2068   2.072       .  S
N2067      N2068   1.323       .  A
N2067      C2071   1.345       .  A
N2068      C2069   1.345       .  A
C2069      C2070   1.382       .  A
C2069      H2072   1.082       .  S
C2070      C2071   1.382       .  A
C2071      H2073   1.082       .  S
N2074      N2075   1.323       .  A
N2074      C2078   1.345       .  A
N2075      C2076   1.345       .  A
C2076      C2077   1.381       .  A
C2076      H2079   1.082       .  S
C2077      C2180   1.464       .  S
C2077      C2078   1.381       .  A
C2078      H2080   1.082       .  S
N2081      C2085   1.345       .  A
N2081     Cu2089   2.072       .  S
N2082      C2083   1.345       .  A
N2082     Cu2088   2.074       .  S
C2083      C2084   1.382       .  A
C2083      H2086   1.082       .  S
C2085      H2087   1.082       .  S
Cu2088     N2091   2.074       .  S
Cu2089     N2099   2.072       .  S
Cu2090     N2092   2.072       .  S
N2091      N2092   1.323       .  A
N2091      C2095   1.345       .  A
N2092      C2093   1.345       .  A
C2093      C2094   1.382       .  A
C2093      H2096   1.082       .  S
C2094      C2095   1.382       .  A
C2095      H2097   1.082       .  S
N2098      N2099   1.323       .  A
N2098      C2102   1.345       .  A
N2099      C2100   1.345       .  A
C2100      C2101   1.381       .  A
C2100      H2103   1.082       .  S
C2101      C2177   1.464       .  S
C2101      C2102   1.381       .  A
C2102      H2104   1.082       .  S
N2105      N2106   1.323       .  A
N2105      C2109   1.345       .  A
N2105     Cu2113   2.072       .  S
N2106      C2107   1.345       .  A
N2106     Cu2112   2.074       .  S
C2107      C2108   1.382       .  A
C2107      H2110   1.082       .  S
C2108      C2109   1.382       .  A
C2109      H2111   1.082       .  S
Cu2112     N2115   2.074       .  S
Cu2113     N2123   2.072       .  S
Cu2114     N2116   2.072       .  S
Cu2114     N2122   2.072       .  S
N2115      N2116   1.323       .  A
N2115      C2119   1.345       .  A
N2116      C2117   1.345       .  A
C2117      C2118   1.382       .  A
C2117      H2120   1.082       .  S
C2118      C2119   1.382       .  A
C2119      H2121   1.082       .  S
N2122      N2123   1.323       .  A
N2122      C2126   1.345       .  A
N2123      C2124   1.345       .  A
C2124      C2125   1.381       .  A
C2124      H2127   1.082       .  S
C2125      C2179   1.464       .  S
C2125      C2126   1.381       .  A
C2126      H2128   1.082       .  S
N2129      N2130   1.323       .  A
N2129      C2133   1.345       .  A
N2129     Cu2137   2.072       .  S
N2130      C2131   1.345       .  A
N2130     Cu2136   2.074       .  S
C2131      C2132   1.382       .  A
C2131      H2134   1.082       .  S
C2132      C2133   1.382       .  A
C2133      H2135   1.082       .  S
Cu2136     N2139   2.074       .  S
Cu2137     N2147   2.072       .  S
Cu2138     N2140   2.072       .  S
Cu2138     N2146   2.072       .  S
N2139      N2140   1.323       .  A
N2139      C2143   1.345       .  A
N2140      C2141   1.345       .  A
C2141      C2142   1.382       .  A
C2141      H2144   1.082       .  S
C2142      C2143   1.382       .  A
C2143      H2145   1.082       .  S
N2146      N2147   1.323       .  A
N2146      C2150   1.345       .  A
N2147      C2148   1.345       .  A
C2148      C2149   1.381       .  A
C2148      H2151   1.082       .  S
C2149      C2178   1.464       .  S
C2149      C2150   1.381       .  A
C2150      H2152   1.082       .  S
O2153     Cu2161   2.008       .  S
O2153      C2163   1.277       .  A
O2154      C2164   1.277       .  A
O2155     Cu2161   2.008       .  S
O2155      C2165   1.277       .  A
O2156      C2166   1.277       .  A
O2157      C2166   1.277       .  A
O2158     Cu2162   2.008       .  S
O2158      C2165   1.277       .  A
O2159      C2164   1.277       .  A
O2160     Cu2162   2.008       .  S
O2160      C2163   1.277       .  A
Cu2161    Cu2162   2.378       .  S
O2167     Cu2175   2.008       .  S
O2167      C2177   1.277       .  A
O2168     Cu2175   2.008       .  S
O2168      C2178   1.277       .  A
O2169     Cu2175   2.008       .  S
O2169      C2179   1.277       .  A
O2170     Cu2175   2.008       .  S
O2170      C2180   1.277       .  A
O2171     Cu2176   2.008       .  S
O2171      C2180   1.277       .  A
O2172     Cu2176   2.008       .  S
O2172      C2179   1.277       .  A
O2173     Cu2176   2.008       .  S
O2173      C2178   1.277       .  A
O2174     Cu2176   2.008       .  S
O2174      C2177   1.277       .  A
Cu2175    Cu2176   2.378       .  S
O2181     Cu2189   2.008       .  S
O2181      C2191   1.277       .  A
O2182     Cu2189   2.008       .  S
O2182      C2192   1.277       .  A
O2183     Cu2189   2.008       .  S
O2183      C2193   1.277       .  A
O2184     Cu2189   2.008       .  S
O2184      C2194   1.277       .  A
O2185     Cu2190   2.008       .  S
O2185      C2194   1.277       .  A
O2186     Cu2190   2.008       .  S
O2186      C2193   1.277       .  A
O2187     Cu2190   2.008       .  S
O2187      C2192   1.277       .  A
O2188     Cu2190   2.008       .  S
O2188      C2191   1.277       .  A
Cu2189    Cu2190   2.378       .  S
O2195      C2205   1.277       .  A
O2196     Cu2203   2.008       .  S
O2196      C2206   1.277       .  A
O2197     Cu2203   2.008       .  S
O2197      C2207   1.277       .  A
O2198      C2208   1.277       .  A
O2199      C2208   1.277       .  A
O2200     Cu2204   2.008       .  S
O2200      C2207   1.277       .  A
O2201     Cu2204   2.008       .  S
O2201      C2206   1.277       .  A
O2202      C2205   1.277       .  A
Cu2203    Cu2204   2.378       .  S
