geometry optimzed in LAMMPS
_audit_creation_date              2020-11-30 
_audit_creation_method            'lammps2cif' 
_symmetry_space_group_name_H-M    'P1' 
_symmetry_Int_Tables_number       1 
_symmetry_cell_setting            triclinic 
loop_ 
_symmetry_equiv_pos_as_xyz 
  x,y,z 
_cell_length_a                    30.45501754 
_cell_length_b                    29.5789941689789 
_cell_length_c                    29.63078574986134 
_cell_angle_alpha                 86.74289151887453 
_cell_angle_beta                  89.47716931684793 
_cell_angle_gamma                 93.04528162777105 
loop_ 
_atom_site_label 
_atom_site_type_symbol 
_atom_site_fract_x 
_atom_site_fract_y 
_atom_site_fract_z 
_atom_site_charge 
O1          O  0.50537331  0.42418206  0.69514466    -0.77400
C2          C  0.60085268  0.45512058  0.56776819     0.83600
O3          O  0.62037141  0.53419474  0.71005004    -0.78500
O4          O  0.57592173  0.58909611  0.54856755    -0.80000
O5          O  0.43194038  0.55314924  0.60171290    -0.79800
O6          O  0.45424227  0.47432657  0.70379773    -0.78500
Zn7        Zn  0.54949210  0.46131805  0.65324622     1.55700
O8          O  0.47479327  0.53534338  0.54598824    -0.79900
Cd9        Cd  0.47068969  0.52565825  0.65416965     1.59700
Cd10       Cd  0.57547852  0.57051914  0.66421749     1.59600
O11         O  0.46362598  0.58025391  0.69008946    -0.79800
O12         O  0.53469895  0.52318885  0.63656502    -1.90300
Cd13       Cd  0.53882981  0.53155022  0.56957362     1.59900
O14         O  0.53049427  0.61471047  0.69425910    -0.79800
O15         O  0.58040491  0.48514380  0.54523387    -0.78500
C16         C  0.62204222  0.49076725  0.71708845     0.84100
C17         C  0.47455557  0.43967358  0.71840228     0.83700
O18         O  0.58395517  0.43439412  0.60336474    -0.77400
C19         C  0.44854023  0.56272678  0.56248528     0.84600
O20         O  0.59626509  0.46426935  0.69680237    -0.77500
C21         C  0.48830850  0.61371802  0.70021842     0.84700
C22         C  0.60560286  0.61341575  0.56692864     0.85000
O23         O  0.61148464  0.61010281  0.61003897    -0.79900
O24         O  0.75991856  0.52682890  0.27755662    -0.77400
C25         C  0.85755593  0.65136610  0.31070507     0.83600
O26         O  0.86981658  0.48662789  0.37825572    -0.78500
O27         O  0.84301511  0.63945959  0.44068879    -0.80000
O28         O  0.68873474  0.59632738  0.40940309    -0.79800
O29         O  0.70714562  0.50528467  0.32821893    -0.78500
Zn30       Zn  0.80639214  0.55919804  0.31506467     1.55700
O31         O  0.74150450  0.65024639  0.41949073    -0.79900
Cd32       Cd  0.72554775  0.54566699  0.38191036     1.59700
Cd33       Cd  0.82840780  0.52724353  0.41937885     1.59600
O34         O  0.71335822  0.50142190  0.43558560    -0.79800
O35         O  0.79043622  0.56396306  0.37738752    -1.90300
Cd36       Cd  0.79857858  0.62909955  0.39108354     1.59900
O37         O  0.77989595  0.49531942  0.46602527    -0.79800
O38         O  0.83612043  0.66723604  0.34280883    -0.78500
C39         C  0.87378753  0.48862571  0.33473253     0.84100
C40         C  0.72777691  0.49971846  0.29131585     0.83700
O41         O  0.84470926  0.61434583  0.29339265    -0.77400
C42         C  0.70268415  0.63273470  0.42736739     0.84600
O43         O  0.85072850  0.51446037  0.31061009    -0.77500
C44         C  0.73744163  0.48971301  0.46824079     0.84700
C45         C  0.87056241  0.61559214  0.46133227     0.85000
O46         O  0.87065180  0.57251927  0.45694712    -0.79900
O47         O  0.88912266  0.43299943  0.16715168    -0.77400
C48         C  0.79157667  0.40243839  0.04720795     0.83600
O49         O  0.79371150  0.32485604  0.22061357    -0.78500
O50         O  0.79377495  0.28498361  0.05666447    -0.80000
O51         O  0.95175698  0.29282843  0.08930422    -0.79800
O52         O  0.93982552  0.38184888  0.18101600    -0.78500
Zn53       Zn  0.84176862  0.39550011  0.13694067     1.55700
O54         O  0.89690646  0.28316688  0.04039249    -0.79900
Cd55       Cd  0.92113735  0.32811998  0.14026354     1.59700
Cd56       Cd  0.82215012  0.29122048  0.16774538     1.59600
O57         O  0.92929265  0.27493780  0.18467897    -0.79800
O58         O  0.85834342  0.33510140  0.12782516    -1.90300
Cd59       Cd  0.84859693  0.32421868  0.06308170     1.59900
O60         O  0.86324558  0.23905579  0.19259310    -0.79800
O61         O  0.81667104  0.37569303  0.02802447    -0.78500
C62         C  0.78654878  0.36710296  0.21971700     0.84100
C63         C  0.92045416  0.41763800  0.19099695     0.83700
O64         O  0.80008419  0.41603697  0.08658867    -0.77400
C65         C  0.93368152  0.27172776  0.05696495     0.84600
O66         O  0.80203051  0.39436646  0.18856704    -0.77500
C67         C  0.90520093  0.24054411  0.19802168     0.84700
C68         C  0.76326474  0.27208221  0.08427478     0.85000
O69         O  0.76881486  0.27183048  0.12716555    -0.79900
C70         C  0.69665609  0.47128933  0.00466287     0.04200
C71         C  0.66607978  0.43692862  0.99080058    -0.12000
C72         C  0.67607518  0.39062518  0.99502642     0.01700
C73         C  0.71832094  0.38034529  0.01187736    -0.10500
C74         C  0.74894552  0.41437256  0.02595441     0.04200
C75         C  0.73689325  0.45924349  0.02350230    -0.09900
H76         H  0.63591204  0.44642129  0.97462316     0.09800
H77         H  0.72757705  0.34551868  0.01379967     0.07300
H78         H  0.76018065  0.48546570  0.03408672     0.07200
C79         C  0.98415446  0.44948090  0.29509646     0.04200
C80         C  0.97381083  0.43741273  0.25097986    -0.12000
C81         C  0.93111410  0.43796437  0.23499577     0.01700
C82         C  0.89793045  0.45209949  0.26401030    -0.10500
C83         C  0.90706742  0.46413788  0.30905770     0.04200
C84         C  0.95048929  0.46190817  0.32434162    -0.09900
H85         H  0.99946225  0.42899548  0.22783900     0.09800
H86         H  0.86483876  0.45368349  0.25142909     0.07300
H87         H  0.95861796  0.47286757  0.35766198     0.07200
O88         O  0.56196819  0.16562916  0.85406648    -0.77400
C89         C  0.67738773  0.20589740  0.95751088     0.83600
O90         O  0.51786898  0.24748855  0.97590194    -0.78500
O91         O  0.67172775  0.33273359  0.94449505    -0.80000
O92         O  0.62080973  0.33037891  0.79988822    -0.79800
O93         O  0.56028642  0.21944349  0.79839867    -0.78500
Zn94       Zn  0.59113165  0.19951210  0.90680449     1.55700
O95         O  0.68134927  0.33076652  0.84134336    -0.79900
Cd96       Cd  0.58132884  0.27693596  0.83076211     1.59700
Cd97       Cd  0.56281786  0.29840217  0.93931882     1.59600
O98         O  0.52465336  0.30802869  0.82834045    -0.79800
O99         O  0.59777322  0.26488393  0.89495754    -1.90300
Cd100      Cd  0.66089243  0.28660839  0.89740353     1.59900
O101        O  0.52545554  0.33889810  0.89528438    -0.79800
O102        O  0.69500402  0.23393311  0.92709962    -0.78500
C103        C  0.51338177  0.20419159  0.97121356     0.84100
C104        C  0.54715502  0.18051225  0.81594479     0.83700
O105        O  0.64130251  0.18330511  0.95013370    -0.77400
C106        C  0.65802793  0.34881363  0.81002759     0.84600
O107        O  0.53992965  0.18504211  0.94653196    -0.77500
C108        C  0.51286844  0.33782907  0.85401674     0.84700
C109        C  0.64950081  0.35442681  0.97133324     0.85000
O110        O  0.60739067  0.34603820  0.97572654    -0.79900
O111        O  0.43127373  0.04242927  0.94275320    -0.77400
C112        C  0.40398759  0.92342096  0.83873859     0.83600
O113        O  0.36236266  0.09133417  0.83113445    -0.78500
O114        O  0.27305941  0.94334097  0.83608151    -0.80000
O115        O  0.28069964  0.96266919  0.99502775    -0.79800
O116        O  0.38119195  0.03548832  0.99783305    -0.78500
Zn117      Zn  0.40070123  0.00516324  0.89562582     1.55700
O118        O  0.26482894  0.91822343  0.93807741    -0.79900
Cd119      Cd  0.32450618  0.01226044  0.96653011     1.59700
Cd120      Cd  0.30924020  0.05308579  0.86508442     1.59600
O121        O  0.28793378  0.06700489  0.97541357    -0.79800
O122        O  0.33682820  0.00317023  0.90211620    -1.90300
Cd123      Cd  0.31464137  0.94010245  0.88832569     1.59900
O124        O  0.27547296  0.09892010  0.90750902    -0.79800
O125        O  0.36354798  0.91034336  0.84704315    -0.78500
C126        C  0.40373741  0.08477849  0.82991979     0.84100
C127        C  0.41509829  0.05625321  0.97886759     0.83700
O128        O  0.42391546  0.95151007  0.86404625    -0.77400
C129        C  0.25430846  0.93510388  0.97559710     0.84600
O130        O  0.41961560  0.05121066  0.85049463    -0.77500
C131        C  0.27165482  0.09821949  0.95092623     0.84700
C132        C  0.26010021  0.97527959  0.81034244     0.85000
O133        O  0.26967745  0.01726572  0.81763979    -0.79900
C134        C  0.41943517  0.15760678  0.05100583     0.04200
C135        C  0.45361774  0.18645011  0.03098324    -0.12000
C136        C  0.47675944  0.17363231  0.99297284     0.01700
C137        C  0.46607314  0.12961373  0.97662393    -0.10500
C138        C  0.43170267  0.10054546  0.99673919     0.04200
C139        C  0.40734027  0.11702109  0.03161824    -0.09900
H140        H  0.46405941  0.21752062  0.04630213     0.09800
H141        H  0.48370344  0.11844838  0.94774074     0.07300
H142        H  0.37896218  0.09714295  0.04543938     0.07200
C143        C  0.45265363  0.16048291  0.73544520     0.04200
C144        C  0.49510954  0.17179397  0.75111438    -0.12000
C145        C  0.50840715  0.15642512  0.79449463     0.01700
C146        C  0.47829838  0.12688654  0.82036089    -0.10500
C147        C  0.43532908  0.11587266  0.80407866     0.04200
C148        C  0.42299176  0.13332016  0.76204866    -0.09900
H149        H  0.51658155  0.19516012  0.73051274     0.09800
H150        H  0.48700160  0.11486573  0.85415112     0.07300
H151        H  0.39033881  0.12517149  0.74951391     0.07200
C152        C  0.48645293  0.93842083  0.74010110     0.04200
C153        C  0.46713614  0.91109869  0.70771790    -0.12000
C154        C  0.42883201  0.88376588  0.71755924     0.01700
C155        C  0.40865251  0.88489583  0.76140050    -0.10500
C156        C  0.42765685  0.91222129  0.79527968     0.04200
C157        C  0.46728045  0.93767409  0.78362262    -0.09900
H158        H  0.48091952  0.91256628  0.67378254     0.09800
H159        H  0.37731693  0.86660607  0.76810306     0.07300
H160        H  0.48260345  0.95925897  0.80797253     0.07200
C161        C  0.93191954  0.88572153  0.24014824     0.04200
C162        C  0.93908789  0.88422617  0.28709897    -0.12000
C163        C  0.96997497  0.91308599  0.30682827     0.01700
C164        C  0.99408888  0.94492455  0.27837728    -0.10500
C165        C  0.98716040  0.94842290  0.23082708     0.04200
C166        C  0.95574710  0.91855439  0.21196561    -0.09900
H167        H  0.92052287  0.85955932  0.30897400     0.09800
H168        H  0.01931820  0.96618495  0.29346887     0.07300
H169        H  0.94944961  0.92112929  0.17601766     0.07200
C170        C  0.23663481  0.21340176  0.98891095     0.04200
C171        C  0.21431486  0.20005945  0.02992034    -0.12000
C172        C  0.21073756  0.15435247  0.04569219     0.01700
C173        C  0.22859191  0.12178155  0.01837262    -0.10500
C174        C  0.24924829  0.13388244  0.97587020     0.04200
C175        C  0.25334935  0.18020984  0.96175420    -0.09900
H176        H  0.20108274  0.22554896  0.05028360     0.09800
H177        H  0.22561867  0.08631700  0.02993755     0.07300
H178        H  0.27098208  0.19068486  0.93066518     0.07200
C179        C  0.13470636  0.88968025  0.00096754     0.04200
C180        C  0.11768700  0.92772653  0.01894059    -0.12000
C181        C  0.14552804  0.96349518  0.03091111     0.01700
C182        C  0.19049285  0.96438774  0.01813228    -0.10500
C183        C  0.20792207  0.92900331  0.99427825     0.04200
C184        C  0.17953520  0.89105635  0.98657996    -0.09900
H185        H  0.08333325  0.92685950  0.02903474     0.09800
H186        H  0.21184531  0.99305208  0.02663584     0.07300
H187        H  0.19291820  0.86199218  0.97189917     0.07200
C188        C  0.23956571  0.91230615  0.28738667     0.04200
C189        C  0.20991939  0.88154242  0.31163243    -0.12000
C190        C  0.16482384  0.88901290  0.31177677     0.01700
C191        C  0.15022953  0.92840233  0.28779972    -0.10500
C192        C  0.17965596  0.95915282  0.26305618     0.04200
C193        C  0.22405065  0.94984613  0.26214032    -0.09900
H194        H  0.22227128  0.85403336  0.33276091     0.09800
H195        H  0.11564990  0.93537693  0.28879707     0.07300
H196        H  0.24718186  0.97374212  0.24419912     0.07200
C197        C  0.95761183  0.17510407  0.98177597     0.04200
C198        C  0.97162148  0.14226501  0.01336238    -0.12000
C199        C  0.98368895  0.15473096  0.05625599     0.01700
C200        C  0.97404050  0.19849358  0.07012839    -0.10500
C201        C  0.95253492  0.22945095  0.04081843     0.04200
C202        C  0.94489576  0.21716928  0.99649166    -0.09900
H203        H  0.98071051  0.10975022  0.00209209     0.09800
H204        H  0.98273619  0.20800774  0.10374458     0.07300
H205        H  0.93244297  0.24223080  0.97250181     0.07200
C206        C  0.92984855  0.15201504  0.28855098     0.04200
C207        C  0.90594289  0.17697397  0.25621533    -0.12000
C208        C  0.92785069  0.20258891  0.22128465     0.01700
C209        C  0.97284034  0.19538380  0.21234220    -0.10500
C210        C  0.99546844  0.16294806  0.23867806     0.04200
C211        C  0.97313212  0.14131640  0.27654528    -0.09900
H212        H  0.87180054  0.18310162  0.26237982     0.09800
H213        H  0.98967731  0.21405871  0.18425310     0.07300
H214        H  0.99077348  0.11839361  0.29859911     0.07200
O215        O  0.06066985  0.16539250  0.19016005    -0.77400
C216        C  0.18532687  0.13873895  0.08810952     0.83600
O217        O  0.01056874  0.08302271  0.08452041    -0.78500
O218        O  0.15752842  0.01023447  0.09101111    -0.80000
O219        O  0.13219767  0.02088077  0.25257369    -0.79800
O220        O  0.05080953  0.10911042  0.24320808    -0.78500
Zn221      Zn  0.09517726  0.13538642  0.13980879     1.55700
O222        O  0.17923279  0.00944096  0.19671653    -0.79900
Cd223      Cd  0.08584752  0.05844289  0.21788325     1.59700
Cd224      Cd  0.05201740  0.03522871  0.11630506     1.59600
O225        O  0.03887271  0.00927303  0.22520170    -0.79800
O226        O  0.09685675  0.07044477  0.15259495    -1.90300
Cd227      Cd  0.15772635  0.05172354  0.14261153     1.59900
O228        O  0.01396170  0.98699252  0.15967273    -0.79800
O229        O  0.19715588  0.10295229  0.10993570    -0.78500
C230        C  0.01489922  0.12652028  0.08158241     0.84100
C231        C  0.03912276  0.14632346  0.22422594     0.83700
O232        O  0.14985657  0.15772806  0.09873859    -0.77400
C233        C  0.16352734  0.99936253  0.23647650     0.84600
O234        O  0.04727815  0.14758147  0.09856903    -0.77500
C235        C  0.01422345  0.98332207  0.20302329     0.84700
C236        C  0.12930921  0.99414567  0.06437176     0.85000
O237        O  0.08813424  0.00099286  0.06829060    -0.79900
O238        O  0.41510274  0.75545418  0.57665294    -0.77400
C239        C  0.40688086  0.86092939  0.67902268     0.83600
O240        O  0.33380924  0.74314129  0.70781561    -0.78500
O241        O  0.28982373  0.88936124  0.64974535    -0.80000
O242        O  0.27995875  0.83517832  0.51871100    -0.79800
O243        O  0.35905266  0.73362829  0.53380783    -0.78500
Zn244      Zn  0.37918787  0.77521371  0.62777105     1.55700
O245        O  0.31251834  0.89503941  0.54968917    -0.79900
Cd246      Cd  0.31276243  0.78136763  0.55166409     1.59700
Cd247      Cd  0.28521189  0.77568874  0.66314243     1.59600
O248        O  0.26067203  0.73963120  0.55739060    -0.79800
O249        O  0.32545432  0.79992981  0.61216866    -1.90300
Cd250      Cd  0.33488249  0.86556063  0.61002148     1.59900
O251        O  0.23533639  0.73364327  0.62840896    -0.79800
O252        O  0.38888972  0.88581843  0.64839578    -0.78500
C253        C  0.36147534  0.71640232  0.69257580     0.84100
C254        C  0.39750730  0.72771059  0.54960531     0.83700
O255        O  0.40655669  0.81765223  0.67644547    -0.77400
C256        C  0.28186200  0.87758703  0.52567013     0.84600
O257        O  0.36228584  0.71249697  0.65093570    -0.77500
C258        C  0.23254535  0.72417394  0.58649732     0.84700
C259        C  0.26331498  0.87625996  0.68136095     0.85000
O260        O  0.25733065  0.83382858  0.69379465    -0.79900
O261        O  0.01997172  0.91732168  0.36841079    -0.77400
C262        C  0.11999404  0.90213963  0.49081274     0.83600
O263        O  0.13151515  0.82017933  0.35208914    -0.78500
O264        O  0.08889079  0.76710674  0.51295174    -0.80000
O265        O  0.94812749  0.77852095  0.46265894    -0.79800
O266        O  0.96028082  0.87071737  0.37732285    -0.78500
Zn267      Zn  0.06349584  0.88804563  0.41057222     1.55700
O268        O  0.99707578  0.77367466  0.51795046    -0.79900
Cd269      Cd  0.98393076  0.81573774  0.41313417     1.59700
Cd270      Cd  0.08295371  0.78103359  0.39493217     1.59600
O271        O  0.97523742  0.76799238  0.36784658    -0.79800
O272        O  0.04705274  0.82508750  0.42723264    -1.90300
Cd273      Cd  0.05164507  0.81799447  0.49409874     1.59900
O274        O  0.03984701  0.73903233  0.35564739    -0.79800
O275        O  0.10379264  0.86543653  0.51136741    -0.78500
C276        C  0.13381391  0.86358231  0.34451266     0.84100
C277        C  0.98297684  0.90177452  0.35447370     0.83700
O278        O  0.09989205  0.92089560  0.45758516    -0.77400
C279        C  0.96263030  0.75793960  0.49787814     0.84600
O280        O  0.10906780  0.88829020  0.36535002    -0.77500
C281        C  0.99805554  0.73930445  0.34980110     0.84700
C282        C  0.10797810  0.73806799  0.49167522     0.85000
O283        O  0.10906521  0.73906095  0.44807979    -0.79900
C284        C  0.93742137  0.64430163  0.56423963     0.04200
C285        C  0.91378075  0.61939004  0.53270510    -0.12000
C286        C  0.90198913  0.64002154  0.49135501     0.01700
C287        C  0.91610401  0.68625588  0.48118891    -0.10500
C288        C  0.94210585  0.71148278  0.51173185     0.04200
C289        C  0.95245009  0.68961233  0.55312947    -0.09900
H290        H  0.90182753  0.58492571  0.54181569     0.09800
H291        H  0.90747617  0.70225883  0.44892761     0.07300
H292        H  0.97068153  0.70860637  0.57768566     0.07200
C293        C  0.22051598  0.98469478  0.50382380     0.04200
C294        C  0.25420090  0.95409962  0.50729960    -0.12000
C295        C  0.24541092  0.90715245  0.51034649     0.01700
C296        C  0.20084239  0.89047370  0.50745280    -0.10500
C297        C  0.16589365  0.92048106  0.50124452     0.04200
C298        C  0.17656040  0.96777385  0.49908883    -0.09900
H299        H  0.28797561  0.96721711  0.50959362     0.09800
H300        H  0.19332739  0.85419934  0.50999947     0.07300
H301        H  0.15063316  0.99128100  0.49478975     0.07200
C302        C  0.18639921  0.65785876  0.49573966     0.04200
C303        C  0.14200864  0.66521771  0.49722681    -0.12000
C304        C  0.13139333  0.70372281  0.51881255     0.01700
C305        C  0.15621127  0.71648003  0.55695975    -0.10500
C306        C  0.19644040  0.69623064  0.56644113     0.04200
C307        C  0.21053856  0.66504474  0.53533234    -0.09900
H308        H  0.12264079  0.65617545  0.46817086     0.09800
H309        H  0.14934811  0.74749370  0.57285085     0.07300
H310        H  0.24507713  0.65800586  0.53475405     0.07200
C311        C  0.97063046  0.65905231  0.25687154     0.04200
C312        C  0.92466767  0.65340001  0.26234655    -0.12000
C313        C  0.90264529  0.67096173  0.29835646     0.01700
C314        C  0.92723646  0.69863102  0.32732370    -0.10500
C315        C  0.97353805  0.70638084  0.32164605     0.04200
C316        C  0.99502422  0.68430215  0.28791303    -0.09900
H317        H  0.90534661  0.63472624  0.23843613     0.09800
H318        H  0.91064862  0.71277273  0.35533876     0.07300
H319        H  0.03043075  0.68854160  0.28480093     0.07200
C320        C  0.22833400  0.99530535  0.69251658     0.04200
C321        C  0.22411749  0.99745085  0.73920555    -0.12000
C322        C  0.23832520  0.96246911  0.76775599     0.01700
C323        C  0.24427295  0.91944983  0.74987393    -0.10500
C324        C  0.24201828  0.91431909  0.70276354     0.04200
C325        C  0.23495612  0.95353059  0.67429601    -0.09900
H326        H  0.21942990  0.03005540  0.75274092     0.09800
H327        H  0.25676912  0.89221634  0.77124449     0.07300
H328        H  0.23949336  0.95280132  0.63802249     0.07200
C329        C  0.68935552  0.18257952  0.08573533     0.04200
C330        C  0.69306540  0.22815539  0.09494572    -0.12000
C331        C  0.72177724  0.25343942  0.06543368     0.01700
C332        C  0.71845192  0.24566326  0.01880870    -0.10500
C333        C  0.69344264  0.20720538  0.00517393     0.04200
C334        C  0.68066702  0.17368124  0.03976930    -0.09900
H335        H  0.69323993  0.23653015  0.13010499     0.09800
H336        H  0.73631347  0.26792724  0.99393526     0.07300
H337        H  0.66880197  0.14018571  0.03105054     0.07200
C338        C  0.47254165  0.72950664  0.74205361     0.04200
C339        C  0.42711795  0.73421973  0.73756814    -0.12000
C340        C  0.40080846  0.70091614  0.71764716     0.01700
C341        C  0.42049032  0.66013823  0.70720558    -0.10500
C342        C  0.46575176  0.65347296  0.71625800     0.04200
C343        C  0.49083837  0.68833160  0.73433716    -0.09900
H344        H  0.41349097  0.76629721  0.74402587     0.09800
H345        H  0.40145190  0.63529586  0.68896065     0.07300
H346        H  0.52556003  0.68442458  0.74012093     0.07200
C347        C  0.49319636  0.67069270  0.50307744     0.04200
C348        C  0.48429482  0.62497258  0.51474503    -0.12000
C349        C  0.44733535  0.61015555  0.54117017     0.01700
C350        C  0.41668876  0.64318305  0.55216117    -0.10500
C351        C  0.42369203  0.68955381  0.53549137     0.04200
C352        C  0.46194963  0.70212531  0.51133267    -0.09900
H353        H  0.50848179  0.60137024  0.50620406     0.09800
H354        H  0.38903015  0.63347800  0.57449044     0.07300
H355        H  0.46836961  0.73751418  0.50035777     0.07200
C356        C  0.67335306  0.71667773  0.51270806     0.04200
C357        C  0.68729389  0.69822347  0.47272053    -0.12000
C358        C  0.67626560  0.65337845  0.46297658     0.01700
C359        C  0.64878440  0.62667945  0.49391608    -0.10500
C360        C  0.63465218  0.64368397  0.53532220     0.04200
C361        C  0.64775671  0.68877015  0.54463726    -0.09900
H362        H  0.70971104  0.71827768  0.45002132     0.09800
H363        H  0.64079381  0.59154961  0.48729965     0.07300
H364        H  0.63715630  0.70238113  0.57585379     0.07200
C365        C  0.46322779  0.44943610  0.84429620     0.04200
C366        C  0.45715147  0.45648536  0.79752983    -0.12000
C367        C  0.46825887  0.42377958  0.76726276     0.01700
C368        C  0.48407189  0.38266422  0.78592477    -0.10500
C369        C  0.48771467  0.37488427  0.83371724     0.04200
C370        C  0.47596714  0.40812579  0.86210947    -0.09900
H371        H  0.44757084  0.48949979  0.78460666     0.09800
H372        H  0.49634661  0.35849313  0.76343617     0.07300
H373        H  0.48117351  0.40384289  0.89820460     0.07200
C374        C  0.72984212  0.45432784  0.76995512     0.04200
C375        C  0.69845008  0.48258927  0.74992639    -0.12000
C376        C  0.65412695  0.46713456  0.74747147     0.01700
C377        C  0.64179724  0.42289455  0.76665211    -0.10500
C378        C  0.67254331  0.39432207  0.78749944     0.04200
C379        C  0.71639418  0.41102932  0.78931432    -0.09900
H380        H  0.70918828  0.51473426  0.73294019     0.09800
H381        H  0.60780266  0.41037957  0.76482171     0.07300
H382        H  0.74064669  0.38978075  0.80482627     0.07200
C383        C  0.71977972  0.47256816  0.59445095     0.04200
C384        C  0.73782142  0.48251148  0.55099488    -0.12000
C385        C  0.71466371  0.47500557  0.51198453     0.01700
C386        C  0.66905095  0.46307500  0.51643648    -0.10500
C387        C  0.64915045  0.45394777  0.55985115     0.04200
C388        C  0.67585825  0.45642080  0.59846990    -0.09900
H389        H  0.77089539  0.49665123  0.54667204     0.09800
H390        H  0.64904799  0.46336266  0.48666737     0.07300
H391        H  0.66174532  0.44961633  0.63201555     0.07200
C392        C  0.67547135  0.39081340  0.24435274     0.04200
C393        C  0.71206552  0.36429687  0.24831680    -0.12000
C394        C  0.75376523  0.38522012  0.24954466     0.01700
C395        C  0.75818440  0.43067888  0.26136534    -0.10500
C396        C  0.72096755  0.45560049  0.26936705     0.04200
C397        C  0.67930064  0.43599357  0.25888889    -0.09900
H398        H  0.70923256  0.32876048  0.24155996     0.09800
H399        H  0.79068776  0.44680577  0.26374064     0.07300
H400        H  0.65113270  0.45670696  0.25974850     0.07200
O401        O  0.18349882  0.42114365  0.48402601    -0.77400
C402        C  0.28132850  0.55923821  0.48065802     0.83600
O403        O  0.28410122  0.41947929  0.59882516    -0.78500
O404        O  0.25731511  0.57546300  0.61937462    -0.80000
O405        O  0.10951765  0.53849200  0.57878230    -0.79800
O406        O  0.11934236  0.43812044  0.51324956    -0.78500
Zn407      Zn  0.22855219  0.46983135  0.50919830     1.55700
O408        O  0.16530166  0.58599139  0.59531197    -0.79900
Cd409      Cd  0.14215900  0.48284750  0.56037606     1.59700
Cd410      Cd  0.23047558  0.45986589  0.62259914     1.59600
O411        O  0.11994131  0.44185956  0.61138497    -0.79800
O412        O  0.20738184  0.49133039  0.56537683    -1.90300
Cd413      Cd  0.22031833  0.55798614  0.56605006     1.59900
O414        O  0.17490416  0.41964634  0.65469010    -0.79800
O415        O  0.26334981  0.58060573  0.51182567    -0.78500
C416        C  0.29598945  0.41443079  0.55743272     0.84100
C417        C  0.14227927  0.41181784  0.49126971     0.83700
O418        O  0.26782705  0.51873689  0.47238233    -0.77400
C419        C  0.12614814  0.56932211  0.60293634     0.84600
O420        O  0.27582156  0.43228121  0.52470739    -0.77500
C421        C  0.13366270  0.41864538  0.64467882     0.84700
C422        C  0.25946698  0.55712732  0.65890781     0.85000
O423        O  0.25069123  0.51411623  0.66678367    -0.79900
O424        O  0.67129115  0.27846358  0.46582208    -0.77400
C425        C  0.74259012  0.13846695  0.48984902     0.83600
O426        O  0.78985686  0.25414441  0.35642615    -0.78500
O427        O  0.74353142  0.10880367  0.37371666    -0.80000
O428        O  0.61220448  0.18010664  0.33851611    -0.79800
O429        O  0.61022884  0.25332613  0.43274291    -0.78500
Zn430      Zn  0.71699559  0.23079233  0.44643448     1.55700
O431        O  0.63974290  0.11386235  0.36084822    -0.79900
Cd432      Cd  0.64352620  0.22530646  0.38220100     1.59700
Cd433      Cd  0.73224525  0.21387322  0.33479724     1.59600
O434        O  0.66784123  0.28382248  0.35121966    -0.79800
O435        O  0.69939354  0.20084586  0.39454260    -1.90300
Cd436      Cd  0.69209178  0.13560485  0.40374566     1.59900
O437        O  0.68456495  0.24822452  0.29245060    -0.79800
O438        O  0.71088035  0.11752642  0.46974467    -0.78500
C439        C  0.79613137  0.27241310  0.39472681     0.84100
C440        C  0.63043799  0.28223527  0.45654893     0.83700
O441        O  0.74671839  0.18194422  0.48731785    -0.77400
C442        C  0.61566759  0.13758462  0.33407522     0.84600
O443        O  0.76846640  0.26750810  0.42698912    -0.77500
C444        C  0.66019846  0.27602448  0.31106470     0.79900
C445        C  0.74440382  0.10916982  0.33115338     0.85000
O446        O  0.74050789  0.14698280  0.30803620    -0.79900
C447        C  0.53616407  0.33852451  0.50829483     0.04200
C448        C  0.54350364  0.38404386  0.49431227    -0.12000
C449        C  0.57908602  0.39851012  0.46560792     0.01700
C450        C  0.61016319  0.36590385  0.45494164    -0.10500
C451        C  0.60479234  0.31996433  0.47296901     0.04200
C452        C  0.56734006  0.30722387  0.49897939    -0.09900
H453        H  0.51886422  0.40735781  0.50258616     0.09800
H454        H  0.63668607  0.37543745  0.43113640     0.07300
H455        H  0.56110566  0.27186161  0.51012798     0.07200
O456        O  0.54990846  0.47265372  0.45693002    -0.77400
C457        C  0.44109576  0.56465840  0.42461073     0.83600
O458        O  0.41002511  0.40205715  0.40248954    -0.78500
O459        O  0.43719198  0.54032494  0.30354843    -0.80000
O460        O  0.56997181  0.50562554  0.28426705    -0.79800
O461        O  0.59605055  0.45428984  0.40381298    -0.78500
Zn462      Zn  0.48783604  0.47614672  0.43279246     1.55700
O463        O  0.53134449  0.56653900  0.28939178    -0.79900
Cd464      Cd  0.55642847  0.46885310  0.34774417     1.59700
Cd465      Cd  0.44993070  0.43123344  0.34585326     1.59600
O466        O  0.55728792  0.40561900  0.32936807    -0.79800
O467        O  0.49482161  0.47703232  0.36784078    -1.90300
Cd468      Cd  0.48931887  0.54078442  0.34278101     1.59900
O469        O  0.48832250  0.37819022  0.32154559    -0.79800
O470        O  0.46600190  0.58035960  0.39174196    -0.78500
C471        C  0.41631660  0.40226692  0.44540417     0.84100
C472        C  0.57694395  0.44496527  0.44209360     0.83700
O473        O  0.44822029  0.52708939  0.44561006    -0.77400
C474        C  0.55487291  0.54197712  0.26589844     0.84600
O475        O  0.44900386  0.42468218  0.46092290    -0.77500
C476        C  0.53027051  0.37380057  0.32021101     0.84700
C477        C  0.41000213  0.51224266  0.28740496     0.85000
O478        O  0.41001457  0.46921862  0.29805613    -0.79900
C479        C  0.56084673  0.51709752  0.14132895     0.04200
C480        C  0.54778871  0.55654481  0.11932560    -0.12000
C481        C  0.53859993  0.59383513  0.14361635     0.01700
C482        C  0.54396863  0.59147143  0.19169269    -0.10500
C483        C  0.55913294  0.55160021  0.21488897     0.04200
C484        C  0.56834695  0.51514423  0.18821741    -0.09900
H485        H  0.54056814  0.55661589  0.08351213     0.09800
H486        H  0.53312160  0.61888281  0.21102695     0.07300
H487        H  0.57667523  0.48307991  0.20443812     0.07200
C488        C  0.57782177  0.87886440  0.93879255     0.04200
C489        C  0.55253933  0.84139618  0.95833224    -0.12000
C490        C  0.53216526  0.84337898  0.00071079     0.01700
C491        C  0.53663619  0.88526310  0.02276336    -0.10500
C492        C  0.56127202  0.92378695  0.00207821     0.04200
C493        C  0.58207650  0.91901176  0.96077680    -0.09900
H494        H  0.54857020  0.81055953  0.94035090     0.09800
H495        H  0.52127754  0.88777971  0.05551172     0.07300
H496        H  0.60233329  0.94696642  0.94519790     0.07200
O497        O  0.38445863  0.62712320  0.02753324    -0.77400
C498        C  0.51302645  0.62889338  0.11947697     0.83600
O499        O  0.36750097  0.67589863  0.17598802    -0.78500
O500        O  0.48904914  0.75567819  0.15983928    -0.80000
O501        O  0.47274081  0.78554213  0.99909984    -0.79800
O502        O  0.38432607  0.68940065  0.98124465    -0.78500
Zn503      Zn  0.42164157  0.64496751  0.08221146     1.55700
O504        O  0.51824159  0.78272241  0.05798039    -0.79900
Cd505      Cd  0.41929448  0.73861193  0.02060825     1.59700
Cd506      Cd  0.38837667  0.73237008  0.12875219     1.59600
O507        O  0.36966620  0.78188363  0.02424883    -0.79800
O508        O  0.42977304  0.71012285  0.08296925    -1.90300
Cd509      Cd  0.49072467  0.72756742  0.10024777     1.59900
O510        O  0.33580173  0.75064609  0.08594035    -0.79800
O511        O  0.52438609  0.67082881  0.12159397    -0.78500
C512        C  0.36980835  0.63305352  0.17114946     0.84100
C513        C  0.37025172  0.64829258  0.99210637     0.83700
O514        O  0.47886694  0.61548661  0.09787795    -0.77400
C515        C  0.50621821  0.80172522  0.02044042     0.84600
O516        O  0.38715400  0.61883016  0.13596538    -0.77500
C517        C  0.33460098  0.76871038  0.04538124     0.84700
C518        C  0.46496947  0.78651505  0.17141536     0.85000
O519        O  0.42425349  0.78698130  0.16029693    -0.79900
C520        C  0.35032315  0.64317105  0.40356293     0.04200
C521        C  0.31501725  0.62154931  0.42854739    -0.12000
C522        C  0.32022308  0.58168392  0.45502849     0.01700
C523        C  0.36286223  0.56418680  0.45700302    -0.10500
C524        C  0.39929655  0.58710758  0.43308798     0.04200
C525        C  0.39225641  0.62733035  0.40746837    -0.09900
H526        H  0.28295834  0.63491898  0.42586209     0.09800
H527        H  0.36729147  0.53235387  0.47589287     0.07300
H528        H  0.41861799  0.64452126  0.38724839     0.07200
O529        O  0.57683084  0.04357141  0.15655039    -0.77400
C530        C  0.57080863  0.96785169  0.02379075     0.83600
O531        O  0.62659613  0.89476296  0.15386551    -0.78500
O532        O  0.67678311  0.92213169  0.02211814    -0.80000
O533        O  0.72953142  0.06897862  0.07557493    -0.79800
O534        O  0.63532914  0.09159891  0.15714410    -0.78500
Zn535      Zn  0.58860815  0.99427663  0.11353668     1.55700
O536        O  0.72522500  0.01950658  0.02134288    -0.79900
Cd537      Cd  0.67702073  0.05162217  0.11932232     1.59700
Cd538      Cd  0.67866923  0.93954361  0.13028797     1.59600
O539        O  0.71049018  0.04074227  0.17605276    -0.79800
O540        O  0.65069294  0.99241165  0.10103665    -1.90300
Cd541      Cd  0.66320835  0.98651898  0.03637861     1.59900
O542        O  0.70784147  0.96566537  0.18857549    -0.79800
O543        O  0.60241610  0.99510687  0.00852739    -0.78500
C544        C  0.58635851  0.90292301  0.16136410     0.84100
C545        C  0.59808868  0.07669407  0.17400387     0.83700
O546        O  0.55171621  0.97575022  0.06059167    -0.77400
C547        C  0.74769642  0.04667575  0.04534350     0.84600
O548        O  0.57063817  0.94051939  0.15041700    -0.77500
C549        C  0.71591347  0.00602276  0.20156717     0.84700
C550        C  0.70934475  0.90308713  0.03959376     0.85000
O551        O  0.71945348  0.90871791  0.08111698    -0.79900
C552        C  0.74512789  0.80977443  0.96584325     0.04200
C553        C  0.72493313  0.83201202  0.00093951    -0.12000
C554        C  0.73632585  0.87751172  0.00857732     0.01700
C555        C  0.76780556  0.90135526  0.97976032    -0.10500
C556        C  0.78791389  0.88063253  0.94354412     0.04200
C557        C  0.77626584  0.83465360  0.93692024    -0.09900
H558        H  0.70025083  0.81382905  0.02256910     0.09800
H559        H  0.77652433  0.93660490  0.98535647     0.07300
H560        H  0.79256552  0.81786451  0.91041907     0.07200
O561        O  0.03074298  0.22879931  0.50535444    -0.77400
C562        C  0.89879163  0.12040032  0.55090333     0.83600
O563        O  0.89893265  0.27623531  0.55149137    -0.78500
O564        O  0.92331762  0.16864251  0.68696286    -0.80000
O565        O  0.05116016  0.17913094  0.66858830    -0.79800
O566        O  0.07199010  0.25107002  0.56267006    -0.78500
Zn567      Zn  0.97163833  0.19761229  0.53395924     1.55700
O568        O  0.00375012  0.11887959  0.66851758    -0.79900
Cd569      Cd  0.03140187  0.22442915  0.61603171     1.59700
Cd570      Cd  0.92437057  0.25112610  0.61457071     1.59600
O571        O  0.02861784  0.28375509  0.64400418    -0.79800
O572        O  0.97096216  0.20813453  0.59737614    -1.90300
Cd573      Cd  0.95490355  0.15023549  0.63148918     1.59900
O574        O  0.96007238  0.30737446  0.64542921    -0.79800
O575        O  0.90737688  0.11596622  0.59316026    -0.78500
C576        C  0.90807270  0.26800869  0.51035695     0.84100
C577        C  0.06296579  0.25362927  0.52070850     0.83700
O578        O  0.92481021  0.14419615  0.52311325    -0.77400
C579        C  0.03630694  0.14045254  0.68590652     0.84600
O580        O  0.93564690  0.23975571  0.50074449    -0.77500
C581        C  0.00180503  0.31352623  0.65205181     0.84700
C582        C  0.88342679  0.17708126  0.68333897     0.85000
O583        O  0.87340748  0.20945405  0.65495539    -0.79900
C584        C  0.78005599  0.10236058  0.72150593     0.04200
C585        C  0.80614546  0.13876575  0.69991841    -0.12000
C586        C  0.85136376  0.14469652  0.71008117     0.01700
C587        C  0.86893356  0.11352649  0.74277394    -0.10500
C588        C  0.84375957  0.07589970  0.76236020     0.04200
C589        C  0.79953959  0.07078756  0.75135577    -0.09900
H590        H  0.79154173  0.16154789  0.67514346     0.09800
H591        H  0.90329640  0.11717938  0.75178667     0.07300
H592        H  0.77967683  0.04256548  0.76706726     0.07200
O593        O  0.89713911  0.04907070  0.93880361    -0.77400
C594        C  0.02133000  0.05805465  0.83997342     0.83600
O595        O  0.85929455  0.00042831  0.79282878    -0.78500
O596        O  0.98591850  0.94351060  0.79386730    -0.80000
O597        O  0.95303592  0.88490628  0.94073224    -0.79800
O598        O  0.92400395  0.99294734  0.98213354    -0.78500
Zn599      Zn  0.92527283  0.03898794  0.87665665     1.55700
O600        O  0.00617927  0.89844099  0.88892680    -0.79900
Cd601      Cd  0.91945312  0.94450547  0.93559438     1.59700
Cd602      Cd  0.88361169  0.94597699  0.83535255     1.59600
O603        O  0.85638521  0.92017285  0.94599499    -0.79800
O604        O  0.92827624  0.97486930  0.87519827    -1.90300
Cd605      Cd  0.98963387  0.96117776  0.85821320     1.59900
O606        O  0.83197888  0.90898529  0.87675539    -0.79800
O607        O  0.03318984  0.01786593  0.84960188    -0.78500
C608        C  0.86346579  0.04371824  0.79616371     0.84100
C609        C  0.89964862  0.02671744  0.97697490     0.83700
O610        O  0.98343966  0.07053828  0.85172359    -0.77400
C611        C  0.98464478  0.87128963  0.91738521     0.84600
O612        O  0.88522542  0.06101730  0.82794350    -0.77500
C613        C  0.82708466  0.90466480  0.92012210     0.84700
C614        C  0.96521289  0.90575022  0.79091094     0.85000
O615        O  0.92444640  0.90069209  0.80324084    -0.79900
O616        O  0.12107702  0.79349429  0.73584577    -0.77400
C617        C  0.24720460  0.71031918  0.73120866     0.83600
O618        O  0.12877894  0.63799698  0.79182826    -0.78500
O619        O  0.25899583  0.68171098  0.85945677    -0.80000
O620        O  0.20165500  0.80760371  0.89302069    -0.79800
O621        O  0.13405069  0.84079595  0.79048152    -0.78500
Zn622      Zn  0.16172435  0.74120767  0.74911733     1.55700
O623        O  0.26539004  0.78327517  0.87098118    -0.79900
Cd624      Cd  0.16268477  0.79536427  0.83650783     1.59700
Cd625      Cd  0.14807479  0.68193030  0.84385220     1.59600
O626        O  0.10513206  0.77920891  0.86422367    -0.79800
O627        O  0.17770875  0.73748407  0.81276912    -1.90300
Cd628      Cd  0.24166165  0.73775345  0.82367192     1.59900
O629        O  0.09007732  0.70502428  0.87446748    -0.79800
O630        O  0.26479908  0.73759464  0.75879113    -0.78500
C631        C  0.11936882  0.64818218  0.75040916     0.84100
C632        C  0.10801853  0.82383777  0.76137021     0.83700
O633        O  0.21165169  0.72037016  0.71199365    -0.77400
C634        C  0.24006697  0.79464611  0.90248543     0.84600
O635        O  0.12424687  0.68842377  0.73355701    -0.77500
C636        C  0.07938067  0.74628970  0.87701048     0.84700
C637        C  0.23805325  0.65560613  0.88839534     0.85000
O638        O  0.19558969  0.65216240  0.88941377    -0.79900
C639        C  0.98826559  0.78382748  0.77729058     0.04200
C640        C  0.03358180  0.78585554  0.76791283    -0.12000
C641        C  0.05895921  0.82722859  0.76605334     0.01700
C642        C  0.03695509  0.86755926  0.77280235    -0.10500
C643        C  0.99034180  0.86569401  0.78041225     0.04200
C644        C  0.96747022  0.82353658  0.78418352    -0.09900
H645        H  0.04937091  0.75457465  0.76255778     0.09800
H646        H  0.05579146  0.89965297  0.77264211     0.07300
H647        H  0.93280509  0.82126816  0.79301384     0.07200
C648        C  0.04583343  0.55551220  0.70349443     0.04200
C649        C  0.06502595  0.55233549  0.66022202    -0.12000
C650        C  0.10220013  0.57997261  0.64546133     0.01700
C651        C  0.12026917  0.61111141  0.67571079    -0.10500
C652        C  0.10244697  0.61344136  0.71986582     0.04200
C653        C  0.06571683  0.58566466  0.73316165    -0.09900
H654        H  0.05151749  0.52728073  0.63822930     0.09800
H655        H  0.14897937  0.63259298  0.66556467     0.07300
H656        H  0.05100063  0.59047069  0.76569283     0.07200
C657        C  0.30940532  0.60726099  0.76444408     0.04200
C658        C  0.29810573  0.57629219  0.73133374    -0.12000
C659        C  0.27038257  0.58881679  0.69560043     0.01700
C660        C  0.25390832  0.63339743  0.69379601    -0.10500
C661        C  0.26533813  0.66444860  0.72712733     0.04200
C662        C  0.29267009  0.65020720  0.76168523    -0.09900
H663        H  0.31180922  0.54322857  0.73242134     0.09800
H664        H  0.23211464  0.64358078  0.66686246     0.07300
H665        H  0.30015816  0.67287985  0.78814659     0.07200
C666        C  0.80252618  0.03512011  0.53278546     0.04200
C667        C  0.76954273  0.06392396  0.51877312    -0.12000
C668        C  0.77775470  0.11093066  0.51209368     0.01700
C669        C  0.82118300  0.12903976  0.52037508    -0.10500
C670        C  0.85523554  0.10046447  0.53535671     0.04200
C671        C  0.84513738  0.05340677  0.54131073    -0.09900
H672        H  0.73720577  0.04900395  0.51178370     0.09800
H673        H  0.82852674  0.16522449  0.51535937     0.07300
H674        H  0.87017858  0.03109581  0.55323599     0.07200
C675        C  0.08056891  0.33164045  0.41611242     0.04200
C676        C  0.10407318  0.36970348  0.43105069    -0.12000
C677        C  0.12033609  0.36910074  0.47512119     0.01700
C678        C  0.10987272  0.32986162  0.50505956    -0.10500
C679        C  0.08607750  0.29056063  0.48965777     0.04200
C680        C  0.07470354  0.29180925  0.44417691    -0.09900
H681        H  0.10735398  0.40051992  0.40938160     0.09800
H682        H  0.11823986  0.33099445  0.54043367     0.07300
H683        H  0.05529041  0.26345017  0.43175520     0.07200
C684        C  0.06527799  0.35972361  0.74076477     0.04200
C685        C  0.10158920  0.38068637  0.71699654    -0.12000
C686        C  0.09824478  0.39145389  0.67073384     0.01700
C687        C  0.05910848  0.37682148  0.64838945    -0.10500
C688        C  0.02320352  0.35378915  0.67221070     0.04200
C689        C  0.02505084  0.35093732  0.71906454    -0.09900
H690        H  0.13242541  0.38694477  0.73409686     0.09800
H691        H  0.05829970  0.37933721  0.61176619     0.07300
H692        H  0.99909857  0.33090036  0.73752573     0.07200
C693        C  0.53946419  0.83077968  0.25826987     0.04200
C694        C  0.56756143  0.85942106  0.23123596    -0.12000
C695        C  0.55708263  0.87009649  0.18679933     0.01700
C696        C  0.51723454  0.85282895  0.16905612    -0.10500
C697        C  0.48892997  0.82226295  0.19545963     0.04200
C698        C  0.50004827  0.81230363  0.24073365    -0.09900
H699        H  0.59797023  0.87340030  0.24495868     0.09800
H700        H  0.51045150  0.85961029  0.13357244     0.07300
H701        H  0.48086557  0.78629588  0.26064071     0.07200
C702        C  0.74554381  0.98045276  0.32291974     0.04200
C703        C  0.73385926  0.97631319  0.27785763    -0.12000
C704        C  0.72893704  0.01375385  0.24865899     0.01700
C705        C  0.73230601  0.05759942  0.26583443    -0.10500
C706        C  0.74504705  0.06366222  0.31084024     0.04200
C707        C  0.75230608  0.02420684  0.33908472    -0.09900
H708        H  0.72922250  0.94303016  0.26486677     0.09800
H709        H  0.72387416  0.08663732  0.24464437     0.07300
H710        H  0.76227058  0.02728326  0.37382264     0.07200
C711        C  0.21942886  0.73087890  0.01555462     0.04200
C712        C  0.21474961  0.75162319  0.97221130    -0.12000
C713        C  0.24840105  0.77972563  0.95098840     0.01700
C714        C  0.28816319  0.78705051  0.97493259    -0.10500
C715        C  0.29247085  0.76768770  0.02005174     0.04200
C716        C  0.25793250  0.73952549  0.03907769    -0.09900
H717        H  0.18448599  0.74517727  0.95421409     0.09800
H718        H  0.31537188  0.80681903  0.95859747     0.07300
H719        H  0.26153874  0.72247531  0.07203810     0.07200
C720        C  0.86313578  0.36529113  0.44466544     0.04200
C721        C  0.89154311  0.33982374  0.47119390    -0.12000
C722        C  0.88822688  0.29310480  0.47209316     0.01700
C723        C  0.86344581  0.27132338  0.43898149    -0.10500
C724        C  0.83750147  0.29637212  0.40807162     0.04200
C725        C  0.83770216  0.34390107  0.41137805    -0.09900
H726        H  0.91025771  0.35555691  0.49768765     0.09800
H727        H  0.85971379  0.23458744  0.44118747     0.07300
H728        H  0.81239555  0.36260372  0.39434643     0.07200
C729        C  0.29910651  0.54546658  0.24510132     0.04200
C730        C  0.33261040  0.52167738  0.26673150    -0.12000
C731        C  0.37663781  0.53318945  0.25798801     0.01700
C732        C  0.38803024  0.57149705  0.22855913    -0.10500
C733        C  0.35561645  0.59738431  0.20715943     0.04200
C734        C  0.31100694  0.58331351  0.21482502    -0.09900
H735        H  0.32477997  0.49538216  0.29290651     0.09800
H736        H  0.42245628  0.58142244  0.22246586     0.07300
H737        H  0.28613228  0.60084151  0.19604332     0.07200
C738        C  0.28698641  0.55591875  0.95248287     0.04200
C739        C  0.32407784  0.57789038  0.97233397    -0.12000
C740        C  0.33348960  0.62522876  0.96599042     0.01700
C741        C  0.30440977  0.65039066  0.93875433    -0.10500
C742        C  0.26571858  0.62952583  0.92073795     0.04200
C743        C  0.25680531  0.58302039  0.92926615    -0.09900
H744        H  0.34617185  0.55822826  0.99266784     0.09800
H745        H  0.31098732  0.68659855  0.93269898     0.07300
H746        H  0.22671428  0.56798412  0.91626792     0.07200
C747        C  0.52466895  0.07042285  0.27712414     0.04200
C748        C  0.53862277  0.07294804  0.23196792    -0.12000
C749        C  0.58021428  0.09201268  0.21840041     0.01700
C750        C  0.60590849  0.11403964  0.25187225    -0.10500
C751        C  0.58998043  0.11526992  0.29756726     0.04200
C752        C  0.54953737  0.09268410  0.30947023    -0.09900
H753        H  0.51819100  0.05537269  0.20803787     0.09800
H754        H  0.63864819  0.12801814  0.24332773     0.07300
H755        H  0.53833815  0.09067558  0.34439233     0.07200
C756        C  0.54226530  0.25631490  0.27943317     0.04200
C757        C  0.52392758  0.29632661  0.29175556    -0.12000
C758        C  0.55015876  0.33140109  0.30752458     0.01700
C759        C  0.59605026  0.32577351  0.31121757    -0.10500
C760        C  0.61569443  0.28733903  0.29509671     0.04200
C761        C  0.58822372  0.25359106  0.27726547    -0.09900
H762        H  0.48887057  0.30023553  0.28894270     0.09800
H763        H  0.61677316  0.35130290  0.32674891     0.07300
H764        H  0.60223069  0.22325878  0.26597672     0.07200
C765        C  0.34126353  0.31186781  0.51094842     0.04200
C766        C  0.32176240  0.33887621  0.54266252    -0.12000
C767        C  0.33155798  0.38563882  0.54270887     0.01700
C768        C  0.36373942  0.40517037  0.51144249    -0.10500
C769        C  0.38399224  0.37924097  0.47912116     0.04200
C770        C  0.37240398  0.33254206  0.47923305    -0.09900
H771        H  0.29488364  0.32444513  0.56399220     0.09800
H772        H  0.37003424  0.44165779  0.50946805     0.07300
H773        H  0.38808540  0.31238376  0.45501459     0.07200
C774        C  0.98007573  0.74413779  0.95429480     0.04200
C775        C  0.01361808  0.72921156  0.92672853    -0.12000
C776        C  0.03777926  0.75943761  0.89743081     0.01700
C777        C  0.02740260  0.80559744  0.89417291    -0.10500
C778        C  0.99442664  0.82196459  0.92109688     0.04200
C779        C  0.96958636  0.79039139  0.94969020    -0.09900
H780        H  0.02495627  0.69536178  0.93149749     0.09800
H781        H  0.04638948  0.82948028  0.87171390     0.07300
H782        H  0.94297988  0.80232616  0.96943119     0.07200
C783        C  0.86040443  0.03587009  0.09682680     0.04200
C784        C  0.88768964  0.03303985  0.05901067    -0.12000
C785        C  0.87067249  0.03635630  0.01516429     0.01700
C786        C  0.82492926  0.04205768  0.00894406    -0.10500
C787        C  0.79681143  0.04491632  0.04673102     0.04200
C788        C  0.81510382  0.04068155  0.08999525    -0.09900
H789        H  0.92262006  0.02942625  0.06369787     0.09800
H790        H  0.81128643  0.04272101  0.97530394     0.07300
H791        H  0.79350453  0.04276602  0.11892564     0.07200
C792        C  0.11707111  0.12897068  0.78221148     0.04200
C793        C  0.09206158  0.10301429  0.81583715    -0.12000
C794        C  0.04838802  0.08793981  0.80697622     0.01700
C795        C  0.03053027  0.09824535  0.76365709    -0.10500
C796        C  0.05573537  0.12282898  0.72933550     0.04200
C797        C  0.09863311  0.13715177  0.73923529    -0.09900
H798        H  0.10600644  0.09527085  0.84867556     0.09800
H799        H  0.99681486  0.08734507  0.75686892     0.07300
H800        H  0.11741953  0.15658710  0.71308036     0.07200
C801        C  0.60548171  0.33193167  0.15595401    -0.27200
C802        C  0.56795500  0.35706132  0.15793253     0.06500
C803        C  0.56007319  0.37826614  0.19855938     0.26100
C804        C  0.59520215  0.38934233  0.22625026    -0.11600
C805        C  0.63671547  0.37310856  0.21865386    -0.25600
C806        C  0.64087577  0.34203750  0.18397357     0.36900
C807        C  0.55549224  0.38232838  0.11534828     0.06500
F808        F  0.52073337  0.39559964  0.20742519    -0.19400
H809        H  0.59000998  0.41179781  0.25291832     0.16300
F810        F  0.68021929  0.32673270  0.17173757    -0.23100
H811        H  0.61147346  0.31306281  0.12640105     0.18100
C812        C  0.59096174  0.40903128  0.09475094     0.26100
C813        C  0.59262848  0.45565840  0.09999419    -0.11600
C814        C  0.55590654  0.47493453  0.11784836    -0.25600
C815        C  0.51541729  0.44961851  0.12044642     0.37000
C816        C  0.51489408  0.40269453  0.11618496    -0.27300
F817        F  0.62864899  0.38993389  0.08313403    -0.19400
H818        H  0.62337750  0.47541139  0.09462753     0.16300
F819        F  0.47845090  0.46863672  0.13451328    -0.23100
H820        H  0.48542403  0.38253517  0.12658844     0.18100
C821        C  0.80308510  0.40685756  0.53715805    -0.27200
C822        C  0.83613498  0.43446995  0.55665538     0.06500
C823        C  0.87226490  0.45077694  0.52934142     0.26100
C824        C  0.87711921  0.43547961  0.48560552    -0.11600
C825        C  0.84649767  0.40310986  0.46905116    -0.25600
C826        C  0.80743751  0.39248075  0.49372317     0.36900
C827        C  0.82852377  0.44865321  0.60359135     0.06500
F828        F  0.90463907  0.47809626  0.54603054    -0.19400
H829        H  0.90773586  0.44376103  0.46734514     0.16300
F830        F  0.77672053  0.36170270  0.47933783    -0.23100
H831        H  0.77354675  0.39532520  0.55593642     0.18100
C832        C  0.82353667  0.49512096  0.60977501     0.26100
C833        C  0.78421769  0.50762271  0.62964584    -0.11600
C834        C  0.74970891  0.47392367  0.63397831    -0.25600
C835        C  0.76264531  0.43072082  0.64835044     0.37000
C836        C  0.80347449  0.41767804  0.63281385    -0.27300
F837        F  0.84840881  0.52752376  0.58570316    -0.19400
H838        H  0.77633938  0.54288772  0.62551558     0.16300
F839        F  0.73215191  0.39831879  0.66388758    -0.23100
H840        H  0.80925088  0.38182961  0.63342520     0.18100
C841        C  0.84106054  0.51997224  0.77045198    -0.27200
C842        C  0.86782010  0.48994623  0.74930465     0.06500
C843        C  0.84950471  0.44799494  0.73713358     0.26100
C844        C  0.80517892  0.43621896  0.74595374    -0.11600
C845        C  0.77764535  0.46680290  0.76513152    -0.25600
C846        C  0.79606373  0.50878502  0.77785945     0.36900
C847        C  0.91434821  0.50294841  0.73807632     0.06500
F848        F  0.87451247  0.41856336  0.71628437    -0.19400
H849        H  0.79190840  0.40354654  0.73623656     0.16300
F850        F  0.77079388  0.53850668  0.79795000    -0.23100
H851        H  0.85484986  0.55245244  0.78019330     0.18100
C852        C  0.92788800  0.51035852  0.69287038     0.26100
C853        C  0.97106008  0.52491670  0.68185235    -0.11600
C854        C  0.00236716  0.53166990  0.71575791    -0.25600
C855        C  0.98950401  0.52008086  0.76117994     0.37000
C856        C  0.94561204  0.50698908  0.77213563    -0.27300
F857        F  0.89875100  0.50582087  0.65921056    -0.19400
H858        H  0.97890855  0.53341281  0.64662155     0.16300
F859        F  0.01909934  0.52100926  0.79510125    -0.23100
H860        H  0.93605769  0.49964318  0.80719508     0.18100
C861        C  0.42259362  0.52326990  0.93221803    -0.27200
C862        C  0.42935926  0.56394701  0.90551751     0.06500
C863        C  0.46839536  0.56805085  0.87934292     0.26100
C864        C  0.48229610  0.52913301  0.86058376    -0.11600
C865        C  0.46137275  0.48714333  0.87408506    -0.25600
C866        C  0.43573823  0.48352681  0.91401749     0.36900
C867        C  0.39055583  0.57863391  0.87953373     0.06500
F868        F  0.48426557  0.60882209  0.86107437    -0.19400
H869        H  0.50584670  0.53218270  0.83279510     0.16300
F870        F  0.41749329  0.44299608  0.93051536    -0.23100
H871        H  0.39684662  0.51992151  0.95761664     0.18100
C872        C  0.39101595  0.62237261  0.85877719     0.26100
C873        C  0.36626261  0.63057429  0.82030242    -0.11600
C874        C  0.33780619  0.59636115  0.80347212    -0.25600
C875        C  0.33392752  0.55392874  0.82694939     0.37000
C876        C  0.35987199  0.54524836  0.86448125    -0.27300
F877        F  0.41760625  0.65643165  0.87388440    -0.19400
H878        H  0.37009508  0.66391116  0.80334052     0.16300
F879        F  0.30568538  0.52048461  0.81340955    -0.23100
H880        H  0.35765021  0.51109350  0.87970557     0.18100
C881        C  0.71350101  0.84006806  0.49033791    -0.27200
C882        C  0.73319917  0.85002127  0.53136616     0.06500
C883        C  0.72932128  0.81744054  0.56793928     0.26100
C884        C  0.70766444  0.77491496  0.56267573    -0.11600
C885        C  0.68933394  0.76422315  0.52093828    -0.25600
C886        C  0.69171424  0.79800426  0.48508336     0.36900
C887        C  0.75602102  0.89523247  0.53573397     0.06500
F888        F  0.74806053  0.82606443  0.60814214    -0.19400
H889        H  0.70699051  0.74966172  0.59063488     0.16300
F890        F  0.67368039  0.79028160  0.44435929    -0.23100
H891        H  0.71504183  0.86507675  0.46210167     0.18100
C892        C  0.78984742  0.91163661  0.50529860     0.26100
C893        C  0.80739817  0.95641994  0.50655078    -0.11600
C894        C  0.79097927  0.98566675  0.53759168    -0.25600
C895        C  0.75800959  0.96880095  0.56860024     0.37000
C896        C  0.74113978  0.92394052  0.56797805    -0.27300
F897        F  0.80503205  0.88472273  0.47363703    -0.19400
H898        H  0.83211698  0.96898117  0.48175662     0.16300
F899        F  0.74061599  0.99642567  0.59818341    -0.23100
H900        H  0.71473750  0.91228856  0.59123218     0.18100
C901        C  0.57636956  0.69831561  0.41305562    -0.27200
C902        C  0.58544488  0.74370715  0.42291578     0.06500
C903        C  0.57888224  0.75701148  0.46697273     0.26100
C904        C  0.55484346  0.72805769  0.49751081    -0.11600
C905        C  0.53560879  0.68726823  0.48302191    -0.25600
C906        C  0.55048211  0.67010529  0.44284483     0.36900
C907        C  0.58185431  0.77728802  0.38527877     0.06500
F908        F  0.58781469  0.80062935  0.47734862    -0.19400
H909        H  0.54524665  0.74064638  0.52959302     0.16300
F910        F  0.53416162  0.62980229  0.42886797    -0.23100
H911        H  0.58190337  0.68737215  0.37927943     0.18100
C912        C  0.60933702  0.77656067  0.34730188     0.26100
C913        C  0.59605633  0.79593243  0.30615481    -0.11600
C914        C  0.55506353  0.81554626  0.30269192    -0.25600
C915        C  0.52922430  0.81941287  0.34130509     0.37000
C916        C  0.54276243  0.80060509  0.38252167    -0.27300
F917        F  0.64686072  0.75376619  0.34930580    -0.19400
H918        H  0.61650078  0.79324385  0.27640936     0.16300
F919        F  0.49019589  0.83952177  0.33868855    -0.23100
H920        H  0.52068962  0.80060860  0.41141875     0.18100
C921        C  0.59076649  0.90188928  0.81445938    -0.27200
C922        C  0.59855668  0.85760840  0.80362835     0.06500
C923        C  0.61970402  0.82946535  0.83539160     0.26100
C924        C  0.61758747  0.83896230  0.88081131    -0.11600
C925        C  0.59687550  0.87763509  0.89321852    -0.25600
C926        C  0.58776971  0.91150691  0.85968580     0.36900
C927        C  0.56346440  0.83440235  0.77899813     0.06500
F928        F  0.63134925  0.78771557  0.82458094    -0.19400
H929        H  0.62697263  0.81367874  0.90626812     0.16300
F930        F  0.56801763  0.94975998  0.87004044    -0.23100
H931        H  0.57610785  0.92461725  0.78998017     0.18100
C932        C  0.52137610  0.82890303  0.79961745     0.26100
C933        C  0.49104817  0.79627116  0.78571089    -0.11600
C934        C  0.50201817  0.76867821  0.75119125    -0.25600
C935        C  0.54241352  0.77709952  0.72752595     0.37000
C936        C  0.57329033  0.80943719  0.74199706    -0.27300
F937        F  0.51117606  0.85149996  0.83658572    -0.19400
H938        H  0.46018481  0.79048766  0.80413711     0.16300
F939        F  0.55272096  0.75286998  0.69168139    -0.23100
H940        H  0.60554418  0.81324192  0.72609262     0.18100
C941        C  0.76744815  0.14777671  0.17891847    -0.27200
C942        C  0.80579629  0.14150651  0.15388678     0.06500
C943        C  0.80417727  0.14733974  0.10627794     0.26100
C944        C  0.76500470  0.15617274  0.08483947    -0.11600
C945        C  0.72575887  0.15959891  0.10944109    -0.25600
C946        C  0.72782543  0.15664397  0.15713496     0.36900
C947        C  0.84319121  0.11840326  0.17551116     0.06500
F948        F  0.83973653  0.14222668  0.07947894    -0.19400
H949        H  0.76573440  0.16131527  0.04836952     0.16300
F950        F  0.69223870  0.16519074  0.18250854    -0.23100
H951        H  0.76834647  0.14539272  0.21542040     0.18100
C952        C  0.88526889  0.12465234  0.15515686     0.26100
C953        C  0.90513621  0.08658538  0.14022066    -0.11600
C954        C  0.87966236  0.04558255  0.14165658    -0.25600
C955        C  0.85172691  0.03767247  0.17976410     0.37000
C956        C  0.83258796  0.07537853  0.19663599    -0.27300
F957        F  0.89991000  0.16608490  0.13767740    -0.19400
H958        H  0.93169173  0.09241632  0.11575512     0.16300
F959        F  0.83180174  0.99600022  0.18885137    -0.23100
H960        H  0.80270943  0.06950409  0.21686873     0.18100
C961        C  0.23598947  0.11932813  0.77727279    -0.27200
C962        C  0.24127989  0.14947826  0.73887537     0.06500
C963        C  0.21625359  0.18796522  0.73757645     0.26100
C964        C  0.17782349  0.18704977  0.76402562    -0.11600
C965        C  0.16346695  0.14630998  0.78828420    -0.25600
C966        C  0.19555659  0.11565554  0.80048134     0.36900
C967        C  0.25055990  0.12747501  0.69604943     0.06500
F968        F  0.22310121  0.22090304  0.70412616    -0.19400
H969        H  0.15499835  0.21336101  0.75714235     0.16300
F970        F  0.18531140  0.07793061  0.82752719    -0.23100
H971        H  0.25808213  0.09224710  0.78216294     0.18100
C972        C  0.21364865  0.11390015  0.67048420     0.26100
C973        C  0.20841069  0.06896622  0.65822574    -0.11600
C974        C  0.24147006  0.03905537  0.66818903    -0.25600
C975        C  0.28358376  0.05768031  0.67856852     0.37000
C976        C  0.28776086  0.10161800  0.69396669    -0.27300
F977        F  0.17875521  0.14027280  0.66624082    -0.19400
H978        H  0.17619174  0.05599467  0.64836598     0.16300
F979        F  0.31728648  0.02996226  0.68556752    -0.23100
H980        H  0.31728433  0.11177196  0.71168892     0.18100
C981        C  0.97423327  0.64275778  0.03760484    -0.27200
C982        C  0.97301992  0.66555432  0.07759400     0.06500
C983        C  0.95948171  0.71028454  0.07621549     0.26100
C984        C  0.95644422  0.73473136  0.03520809    -0.11600
C985        C  0.96473292  0.71444226  0.99448330    -0.25600
C986        C  0.96838690  0.66672452  0.99610066     0.36900
C987        C  0.99023987  0.64654361  0.12048977     0.06500
F988        F  0.95377584  0.73193689  0.11490565    -0.19400
H989        H  0.95212544  0.77063962  0.03646516     0.16300
F990        F  0.96927758  0.64378843  0.95772714    -0.23100
H991        H  0.98220303  0.60748011  0.03826573     0.18100
C992        C  0.96829150  0.61012669  0.14485913     0.26100
C993        C  0.96999092  0.60810280  0.19210842    -0.11600
C994        C  0.99059039  0.64442528  0.21445710    -0.25600
C995        C  0.02017021  0.67449699  0.18946190     0.37000
C996        C  0.02078406  0.67410565  0.14275011    -0.27300
F997        F  0.94044663  0.58097681  0.12390744    -0.19400
H998        H  0.94948108  0.58234870  0.21084903     0.16300
F999        F  0.04191836  0.70983820  0.20824253    -0.23100
H1000       H  0.03860287  0.70150826  0.12409562     0.18100
C1001       C  0.21908501  0.67644894  0.37194392    -0.27200
C1002       C  0.23945529  0.72092552  0.37097400     0.06500
C1003       C  0.23263021  0.74625161  0.40902069     0.26100
C1004       C  0.21836245  0.72436435  0.44971212    -0.11600
C1005       C  0.20604444  0.67770349  0.45262841    -0.25600
C1006       C  0.20238247  0.65516136  0.41242235     0.36900
C1007       C  0.27782574  0.73412306  0.33918251     0.06500
F1008       F  0.24214871  0.79160293  0.40788330    -0.19400
H1009       H  0.21586009  0.74440482  0.47897012     0.16300
F1010       F  0.18528931  0.61181696  0.41283575    -0.23100
H1011       H  0.21962815  0.65622303  0.34268014     0.18100
C1012       C  0.31464545  0.75413973  0.36079153     0.26100
C1013       C  0.34384054  0.72455913  0.38136782    -0.11600
C1014       C  0.34142268  0.67929907  0.36956750    -0.25600
C1015       C  0.31853302  0.66832259  0.33018025     0.37000
C1016       C  0.28947819  0.69937758  0.31151878    -0.27300
F1017       F  0.31593744  0.79809196  0.37168158    -0.19400
H1018       H  0.36460037  0.73551078  0.40860574     0.16300
F1019       F  0.31874047  0.62594761  0.31492447    -0.23100
H1020       H  0.26729927  0.68832849  0.28548676     0.18100
C1021       C  0.27979862  0.09203470  0.54145265    -0.27200
C1022       C  0.26735217  0.12531031  0.50901073     0.06500
C1023       C  0.23600729  0.11244569  0.47649161     0.26100
C1024       C  0.21920583  0.06719054  0.47573956    -0.11600
C1025       C  0.23288392  0.03396479  0.50756798    -0.25600
C1026       C  0.26231689  0.04744665  0.54134895     0.36900
C1027       C  0.28767261  0.17270856  0.50935796     0.06500
F1028       F  0.22137244  0.14351202  0.44549633    -0.19400
H1029       H  0.19649833  0.05787633  0.44949516     0.16300
F1030       F  0.27502753  0.01706177  0.57406475    -0.23100
H1031       H  0.30415474  0.10004693  0.56655532     0.18100
C1032       C  0.29566572  0.19366478  0.55033170     0.26100
C1033       C  0.31496000  0.23765141  0.55030390    -0.11600
C1034       C  0.32579031  0.26292922  0.50967684    -0.25600
C1035       C  0.31830264  0.24191189  0.46866072     0.37000
C1036       C  0.30012169  0.19725917  0.46870491    -0.27300
F1037       F  0.28327927  0.17255467  0.59066005    -0.19400
H1038       H  0.32054527  0.25238289  0.58248903     0.16300
F1039       F  0.32648646  0.26495512  0.42830191    -0.23100
H1040       H  0.29558082  0.18199897  0.43662040     0.18100
C1041       C  0.97454270  0.63555454  0.68344641    -0.27200
C1042       C  0.93341650  0.63069859  0.70577219     0.06500
C1043       C  0.89630477  0.61623845  0.68156456     0.26100
C1044       C  0.89916569  0.61450243  0.63466844    -0.11600
C1045       C  0.93901391  0.62687711  0.61176967    -0.25600
C1046       C  0.97744454  0.63351768  0.63673278     0.36900
C1047       C  0.92809646  0.65855161  0.74495364     0.06500
F1048       F  0.85616158  0.61130836  0.70205385    -0.19400
H1049       H  0.86908917  0.60929529  0.61600693     0.16300
F1050       F  0.01676655  0.64365727  0.61557459    -0.23100
H1051       H  0.00359847  0.64731768  0.70103348     0.18100
C1052       C  0.96026540  0.65856569  0.77862112     0.26100
C1053       C  0.97764461  0.69984265  0.79321083    -0.11600
C1054       C  0.96164119  0.74072781  0.77534986    -0.25600
C1055       C  0.92290248  0.73930550  0.74970617     0.37000
C1056       C  0.90547407  0.69808459  0.73595736    -0.27300
F1057       F  0.97972912  0.61978330  0.79122813    -0.19400
H1058       H  0.00606638  0.70006172  0.81492224     0.16300
F1059       F  0.90590896  0.77771538  0.73162079    -0.23100
H1060       H  0.87979692  0.69890846  0.71089284     0.18100
C1061       C  0.97379236  0.31197391  0.37862458    -0.27200
C1062       C  0.98366880  0.27337256  0.35614349     0.06500
C1063       C  0.02459296  0.27259274  0.33376063     0.26100
C1064       C  0.05844228  0.30386585  0.34387949    -0.11600
C1065       C  0.05131641  0.33458230  0.37712185    -0.25600
C1066       C  0.00765366  0.34366028  0.38806670     0.36900
C1067       C  0.95558550  0.23127513  0.36245675     0.06500
F1068       F  0.03354512  0.23804946  0.30742780    -0.19400
H1069       H  0.09166011  0.29786320  0.33325835     0.16300
F1070       F  0.99957536  0.37542334  0.41796461    -0.23100
H1071       H  0.94169673  0.31461198  0.39373916     0.18100
C1072       C  0.97426149  0.19000520  0.37629773     0.26100
C1073       C  0.95130504  0.14905357  0.36791386    -0.11600
C1074       C  0.91600712  0.15181834  0.33782299    -0.25600
C1075       C  0.88889590  0.18743175  0.34743010     0.37000
C1076       C  0.91048001  0.22994176  0.35265746    -0.27300
F1077       F  0.01540458  0.18937355  0.39346190    -0.19400
H1078       H  0.96775417  0.11767673  0.37333021     0.16300
F1079       F  0.84545418  0.18457482  0.33768163    -0.23100
H1080       H  0.89335470  0.26071874  0.34628076     0.18100
C1081       C  0.03097566  0.30270014  0.84826169    -0.27200
C1082       C  0.03712030  0.25817520  0.83643717     0.06500
C1083       C  0.06499412  0.25039371  0.80050961     0.26100
C1084       C  0.08325229  0.28674339  0.77369016    -0.11600
C1085       C  0.07167004  0.33099866  0.78142247    -0.25600
C1086       C  0.04805997  0.33920832  0.82061329     0.36900
C1087       C  0.01315440  0.22034615  0.86121160     0.06500
F1088       F  0.06977303  0.20777078  0.78818268    -0.19400
H1089       H  0.10033998  0.27983343  0.74276831     0.16300
F1090       F  0.03649745  0.38176786  0.82842097    -0.23100
H1091       H  0.01036082  0.30898632  0.87698922     0.18100
C1092       C  0.96715938  0.21951904  0.86469485     0.26100
C1093       C  0.94587393  0.19496076  0.90073024    -0.11600
C1094       C  0.97089894  0.17291873  0.93393387    -0.25600
C1095       C  0.01551172  0.16564751  0.92418263     0.37000
C1096       C  0.03653093  0.18980718  0.88786924    -0.27300
F1097       F  0.94374270  0.24672709  0.83666229    -0.19400
H1098       H  0.91122645  0.19932433  0.90657664     0.16300
F1099       F  0.04098875  0.14251021  0.95384342    -0.23100
H1100       H  0.07192581  0.18903994  0.88422557     0.18100
C1101       C  0.35943967  0.93148741  0.26174472    -0.27200
C1102       C  0.37406901  0.94678224  0.30330668     0.06500
C1103       C  0.34655143  0.93981662  0.34164454     0.26100
C1104       C  0.30346180  0.92201088  0.33732852    -0.11600
C1105       C  0.28729323  0.91188012  0.29464100    -0.25600
C1106       C  0.31621870  0.91434107  0.25730141     0.36900
C1107       C  0.41473254  0.97618864  0.30418346     0.06500
F1108       F  0.36028321  0.95337522  0.38242104    -0.19400
H1109       H  0.28146264  0.92062899  0.36638511     0.16300
F1110       F  0.30131224  0.90465045  0.21570957    -0.23100
H1111       H  0.38021854  0.93661857  0.23182183     0.18100
C1112       C  0.45449474  0.96153420  0.28756089     0.26100
C1113       C  0.49066538  0.99221632  0.28096307    -0.11600
C1114       C  0.48769324  0.03800475  0.29050221    -0.25600
C1115       C  0.44857058  0.05234768  0.30889249     0.37000
C1116       C  0.41232422  0.02150974  0.31574498    -0.27300
F1117       F  0.45782091  0.91797613  0.27630658    -0.19400
H1118       H  0.52076891  0.98060348  0.26690703     0.16300
F1119       F  0.44456653  0.09653524  0.31742393    -0.23100
H1120       H  0.38158333  0.03357760  0.32771913     0.18100
C1121       C  0.09673664  0.76912416  0.98603613    -0.27200
C1122       C  0.08069669  0.75587097  0.03001410     0.06500
C1123       C  0.06877351  0.79056070  0.05765133     0.26100
C1124       C  0.08362326  0.83525192  0.04654351    -0.11600
C1125       C  0.10769037  0.84651152  0.00621944    -0.25600
C1126       C  0.10987581  0.81409079  0.97428822     0.36900
C1127       C  0.09349024  0.71120360  0.05121724     0.06500
F1128       F  0.04941720  0.78077003  0.09866696    -0.19400
H1129       H  0.07987877  0.85988685  0.07175704     0.16300
F1130       F  0.12807958  0.82552409  0.93320025    -0.23100
H1131       H  0.10485549  0.74425851  0.96255761     0.18100
C1132       C  0.10696041  0.67912156  0.02130552     0.26100
C1133       C  0.15219708  0.67879294  0.01196406    -0.11600
C1134       C  0.18157227  0.70478885  0.03789066    -0.25600
C1135       C  0.16656364  0.71727830  0.08034512     0.37000
C1136       C  0.12135613  0.71650761  0.08846997    -0.27300
F1137       F  0.07821486  0.66229006  0.99103912    -0.19400
H1138       H  0.16317099  0.66496489  0.98098538     0.16300
F1139       F  0.19370697  0.73825133  0.10964319    -0.23100
H1140       H  0.11063775  0.73334457  0.11776739     0.18100
C1141       C  0.29496283  0.32991781  0.97173699    -0.27200
C1142       C  0.25966589  0.35797551  0.96373008     0.06500
C1143       C  0.21698368  0.33758144  0.96060695     0.26100
C1144       C  0.20975364  0.29040404  0.96754515    -0.11600
C1145       C  0.24496780  0.26257974  0.97657879    -0.25600
C1146       C  0.28780472  0.28270501  0.97785995     0.36900
C1147       C  0.26733055  0.40835701  0.96046757     0.06500
F1148       F  0.18200539  0.36342794  0.95290830    -0.19400
H1149       H  0.17649840  0.27556913  0.96666288     0.16300
F1150       F  0.32248103  0.25687476  0.98719863    -0.23100
H1151       H  0.32813024  0.34472449  0.97385572     0.18100
C1152       C  0.28875010  0.43112038  0.99514983     0.26100
C1153       C  0.29455727  0.47860246  0.99263936    -0.11600
C1154       C  0.28002309  0.50486537  0.95503437    -0.25600
C1155       C  0.25940352  0.48145255  0.91973031     0.37000
C1156       C  0.25281188  0.43408700  0.92287606    -0.27300
F1157       F  0.30294362  0.40747157  0.03229969    -0.19400
H1158       H  0.30981315  0.49465678  0.02085758     0.16300
F1159       F  0.24645889  0.50370947  0.88127403    -0.23100
H1160       H  0.23686852  0.41731225  0.89537160     0.18100
C1161       C  0.84567474  0.81259228  0.27609113    -0.27200
C1162       C  0.81583020  0.84708485  0.27249881     0.06500
C1163       C  0.81912318  0.87780491  0.23425147     0.26100
C1164       C  0.85841898  0.88274153  0.20938504    -0.11600
C1165       C  0.89380623  0.85773439  0.22407556    -0.25600
C1166       C  0.88350304  0.81598659  0.24842463     0.36900
C1167       C  0.79614424  0.86380467  0.31378722     0.06500
F1168       F  0.78908495  0.90951551  0.22730375    -0.19400
H1169       H  0.86408365  0.91275024  0.18697854     0.16300
F1170       F  0.91580775  0.78699713  0.25739515    -0.23100
H1171       H  0.84323428  0.78736610  0.30408928     0.18100
C1172       C  0.75042191  0.86233402  0.31991296     0.26100
C1173       C  0.73114904  0.89828234  0.34022460    -0.11600
C1174       C  0.75744522  0.93790994  0.34801720    -0.25600
C1175       C  0.80258503  0.93312255  0.35410310     0.37000
C1176       C  0.82196924  0.89593639  0.33663230    -0.27300
F1177       F  0.72452304  0.83092696  0.29959943    -0.19400
H1178       H  0.69579554  0.90020575  0.33801307     0.16300
F1179       F  0.82894860  0.96897300  0.36566395    -0.23100
H1180       H  0.85742332  0.89693672  0.33362995     0.18100
C1181       C  0.60034131  0.98370651  0.69826056    -0.27200
C1182       C  0.60228483  0.02813012  0.71310004     0.06500
C1183       C  0.56411650  0.04416833  0.73258232     0.26100
C1184       C  0.52645343  0.01525801  0.74037712    -0.11600
C1185       C  0.52540398  0.96998489  0.72789499    -0.25600
C1186       C  0.56230296  0.95509784  0.70504306     0.36900
C1187       C  0.64514092  0.05558463  0.71173662     0.06500
F1188       F  0.56326053  0.08780164  0.74427646    -0.19400
H1189       H  0.49803410  0.02827144  0.75649153     0.16300
F1190       F  0.56295960  0.91176368  0.69238990    -0.23100
H1191       H  0.62909087  0.97030470  0.68319411     0.18100
C1192       C  0.66071502  0.07620915  0.75070256     0.26100
C1193       C  0.70354515  0.09568395  0.75177418    -0.11600
C1194       C  0.73206331  0.09508908  0.71434072    -0.25600
C1195       C  0.71601529  0.07710661  0.67449203     0.37000
C1196       C  0.67299351  0.05736501  0.67327678    -0.27300
F1197       F  0.63617581  0.07390942  0.78931499    -0.19400
H1198       H  0.71563237  0.10844311  0.78316275     0.16300
F1199       F  0.74305301  0.07563101  0.63803501    -0.23100
H1200       H  0.66200047  0.04187470  0.64281679     0.18100
C1201       C  0.44874435  0.19506256  0.61258673    -0.27200
C1202       C  0.42124698  0.23185613  0.61342078     0.06500
C1203       C  0.39706304  0.23830891  0.65293176     0.26100
C1204       C  0.40526339  0.21246110  0.69246647    -0.11600
C1205       C  0.43757127  0.18037928  0.69258273    -0.25600
C1206       C  0.45724656  0.16973899  0.65211068     0.36900
C1207       C  0.43041520  0.26965803  0.57960108     0.06500
F1208       F  0.36946804  0.27276112  0.65449266    -0.19400
H1209       H  0.38904834  0.21989415  0.72368283     0.16300
F1210       F  0.48706997  0.13723073  0.65155259    -0.23100
H1211       H  0.46796772  0.18929803  0.58273157     0.18100
C1212       C  0.43826417  0.26005010  0.53448328     0.26100
C1213       C  0.47025347  0.28591444  0.50928152    -0.11600
C1214       C  0.49379128  0.32186206  0.52865319    -0.25600
C1215       C  0.47991172  0.33667385  0.57024941     0.37000
C1216       C  0.44789714  0.31073258  0.59551220    -0.27300
F1217       F  0.42021271  0.22173141  0.51749587    -0.19400
H1218       H  0.47956973  0.27532057  0.47628095     0.16300
F1219       F  0.50135785  0.37216814  0.58912473    -0.23100
H1220       H  0.44216604  0.31914403  0.63009885     0.18100
C1221       C  0.40104987  0.21250418  0.15970632    -0.27200
C1222       C  0.40702239  0.17439967  0.18911178     0.06500
C1223       C  0.39861082  0.13113553  0.17402423     0.26100
C1224       C  0.39714761  0.12586167  0.12788698    -0.11600
C1225       C  0.40214253  0.16407114  0.09695228    -0.25600
C1226       C  0.39897489  0.20744360  0.11324520     0.36900
C1227       C  0.44280010  0.17920292  0.22090625     0.06500
F1228       F  0.40298309  0.09409982  0.20254872    -0.19400
H1229       H  0.39870433  0.09164453  0.11713723     0.16300
F1230       F  0.39920258  0.24490567  0.08453999    -0.23100
H1231       H  0.40625676  0.24633623  0.17158504     0.18100
C1232       C  0.48597019  0.17789032  0.20379711     0.26100
C1233       C  0.52057319  0.19820193  0.22645428    -0.11600
C1234       C  0.51221081  0.21897900  0.26655391    -0.25600
C1235       C  0.47058152  0.21163875  0.28800087     0.37000
C1236       C  0.43539924  0.19326937  0.26423254    -0.27300
F1237       F  0.49370303  0.16285690  0.16213879    -0.19400
H1238       H  0.55244486  0.20237789  0.20979832     0.16300
F1239       F  0.46293039  0.22720436  0.32945041    -0.23100
H1240       H  0.40234207  0.19308386  0.27806230     0.18100
C1241       C  0.10567437  0.43875453  0.28573090    -0.27200
C1242       C  0.12162300  0.48106588  0.29992682     0.06500
C1243       C  0.09248868  0.50785439  0.32252836     0.26100
C1244       C  0.04756828  0.49524143  0.32517890    -0.11600
C1245       C  0.03129916  0.45505762  0.30672415    -0.25600
C1246       C  0.06137851  0.42520075  0.29044008     0.36900
C1247       C  0.16716400  0.49825992  0.28719323     0.06500
F1248       F  0.10694799  0.54723787  0.34013796    -0.19400
H1249       H  0.02529079  0.51864434  0.33853749     0.16300
F1250       F  0.04737538  0.38454829  0.27512781    -0.23100
H1251       H  0.12666963  0.41713090  0.26800277     0.18100
C1252       C  0.20160418  0.46856441  0.28646159     0.26100
C1253       C  0.24270597  0.48365002  0.26914524    -0.11600
C1254       C  0.25245410  0.52976290  0.25606290    -0.25600
C1255       C  0.21816184  0.55984005  0.25763793     0.37000
C1256       C  0.17585755  0.54386670  0.27185493    -0.27300
F1257       F  0.19610265  0.42495249  0.30333561    -0.19400
H1258       H  0.26725217  0.45871084  0.26700068     0.16300
F1259       F  0.22529797  0.60480459  0.24680963    -0.23100
H1260       H  0.14984245  0.56742618  0.27061941     0.18100
C1261       C  0.69950956  0.59774803  0.02003701    -0.27200
C1262       C  0.70359495  0.61549040  0.97514370     0.06500
C1263       C  0.69966776  0.58555570  0.93998877     0.26100
C1264       C  0.69308044  0.53857404  0.94982946    -0.11600
C1265       C  0.69101209  0.52060388  0.99483033    -0.25600
C1266       C  0.69368589  0.55085015  0.02990238     0.36900
C1267       C  0.71373102  0.66500761  0.96596108     0.06500
F1268       F  0.70388570  0.60156787  0.89625643    -0.19400
H1269       H  0.69241146  0.51595924  0.92231044     0.16300
F1270       F  0.69294586  0.53481974  0.07376635    -0.23100
H1271       H  0.70252349  0.62023853  0.04758109     0.18100
C1272       C  0.68019575  0.69574622  0.96661640     0.26100
C1273       C  0.69048631  0.74267612  0.96441579    -0.11600
C1274       C  0.73448417  0.76009075  0.96140176    -0.25600
C1275       C  0.76795827  0.72909975  0.95859948     0.37000
C1276       C  0.75755777  0.68210114  0.96098479    -0.27300
F1277       F  0.63752594  0.68026242  0.97087574    -0.19400
H1278       H  0.66398365  0.76551365  0.96631231     0.16300
F1279       F  0.81090431  0.74398300  0.95665492    -0.23100
H1280       H  0.78391413  0.65891699  0.96077011     0.18100
loop_ 
_geom_bond_atom_site_label_1 
_geom_bond_atom_site_label_2 
_geom_bond_distance 
_geom_bond_site_symmetry_2 
_ccdc_geom_bond_type 
O1           C17   1.279       .  A
O1           Zn7   2.052       .  S
C2           O18   1.279       .  A
C2           O15   1.273       .  A
C2          C387   1.490       .  S
O3           C16   1.293       .  A
O3          Cd10   2.212       .  S
O4           C22   1.271       .  A
O4          Cd13   2.055       .  S
O5           C19   1.274       .  A
O5           Cd9   2.112       .  S
O6           C17   1.282       .  A
O6           Cd9   2.091       .  S
Zn7          O18   2.028       .  S
Zn7          O20   1.933       .  S
Zn7          O12   1.946       .  S
O8           C19   1.281       .  A
O8          Cd13   2.084       .  S
Cd9          O11   2.004       .  S
Cd9          O12   2.020       .  S
Cd10         O14   2.163       .  S
Cd10         O23   2.184       .  S
Cd10         O12   2.034       .  S
O11          C21   1.262       .  A
O12         Cd13   1.988       .  S
Cd13         O15   2.071       .  S
O14          C21   1.294       .  A
C16          O20   1.260       .  A
C16         C376   1.507       .  S
C17         C367   1.504       .  S
C19         C349   1.508       .  S
C21         C342   1.491       .  S
C22          O23   1.290       .  A
C22         C360   1.506       .  S
O24          C40   1.280       .  A
O24         Zn30   2.040       .  S
C25          O41   1.280       .  A
C25          O38   1.274       .  A
C25         C313   1.496       .  S
O26          C39   1.292       .  A
O26         Cd33   2.195       .  S
O27          C45   1.265       .  A
O27         Cd36   2.032       .  S
O28          C42   1.282       .  A
O28         Cd32   2.113       .  S
O29          C40   1.279       .  A
O29         Cd32   2.105       .  S
Zn30         O41   2.025       .  S
Zn30         O43   1.949       .  S
Zn30         O35   1.920       .  S
O31          C42   1.279       .  A
O31         Cd36   2.066       .  S
Cd32         O34   2.020       .  S
Cd32         O35   2.022       .  S
Cd33         O37   2.157       .  S
Cd33         O46   2.168       .  S
Cd33         O35   2.018       .  S
O34          C44   1.263       .  A
O35         Cd36   1.995       .  S
Cd36         O38   2.068       .  S
O37          C44   1.295       .  A
C39          O43   1.262       .  A
C39          C83   1.502       .  S
C40         C396   1.496       .  S
C42         C358   1.498       .  S
C44         C385   1.496       .  S
C45          O46   1.288       .  A
C45         C286   1.498       .  S
O47          C63   1.280       .  A
O47         Zn53   2.019       .  S
C48          O64   1.280       .  A
C48          O61   1.281       .  A
C48          C74   1.498       .  S
O49          C62   1.279       .  A
O49         Cd56   2.107       .  S
O50          C68   1.261       .  A
O50         Cd59   1.999       .  S
O51          C65   1.285       .  A
O51         Cd55   2.120       .  S
O52          C63   1.286       .  A
O52         Cd55   2.108       .  S
Zn53         O64   2.054       .  S
Zn53         O66   1.940       .  S
Zn53         O58   1.915       .  S
O54          C65   1.281       .  A
O54         Cd59   2.087       .  S
Cd55         O57   2.020       .  S
Cd55         O58   1.970       .  S
Cd56         O60   2.141       .  S
Cd56         O69   2.104       .  S
Cd56         O58   1.987       .  S
O57          C67   1.265       .  A
O58         Cd59   1.986       .  S
Cd59         O61   2.083       .  S
O60          C67   1.288       .  A
C62          O66   1.262       .  A
C62         C394   1.470       .  S
C63          C81   1.498       .  S
C65         C201   1.504       .  S
C67         C208   1.488       .  S
C68          O69   1.283       .  A
C68         C331   1.479       .  S
C70        C1265   1.490   1_554  S
C70          C71   1.422   1_554  A
C70          C75   1.406       .  A
C71          C72   1.418       .  A
C71          H76   1.083       .  S
C72         C109   1.516       .  S
C72          C73   1.426   1_556  A
C73          C74   1.418       .  A
C73          H77   1.081       .  S
C74          C75   1.394       .  A
C75          H78   1.085       .  S
C79        C1245   1.482   1_655  S
C79          C80   1.409       .  A
C79          C84   1.413       .  A
C80          C81   1.389       .  A
C80          H85   1.083       .  S
C81          C82   1.416       .  A
C82          C83   1.427       .  A
C82          H86   1.080       .  S
C83          C84   1.405       .  A
C84          H87   1.083       .  S
O88         C104   1.283       .  A
O88         Zn94   2.084       .  S
C89         O105   1.283       .  A
C89         O102   1.283       .  A
C89         C333   1.501   1_556  S
O90         C103   1.296       .  A
O90         Cd97   2.210       .  S
O91         C109   1.264       .  A
O91        Cd100   2.023       .  S
O92         C106   1.277       .  A
O92         Cd96   2.096       .  S
O93         C104   1.279       .  A
O93         Cd96   2.074       .  S
Zn94        O105   2.063       .  S
Zn94        O107   1.959       .  S
Zn94         O99   1.945       .  S
O95         C106   1.283       .  A
O95        Cd100   2.122       .  S
Cd96         O98   1.998       .  S
Cd96         O99   1.989       .  S
Cd97        O101   2.104       .  S
Cd97        O110   2.233       .  S
Cd97         O99   2.020       .  S
O98         C108   1.261       .  A
O99        Cd100   1.997       .  S
Cd100       O102   2.077       .  S
O101        C108   1.286       .  A
C103        O107   1.263       .  A
C103        C136   1.513       .  S
C104        C145   1.510       .  S
C106        C378   1.511       .  S
C108        C369   1.474       .  S
C109        O110   1.297       .  A
O111        C127   1.271       .  A
O111       Zn117   2.030       .  S
C112        O128   1.283       .  A
C112        O125   1.288       .  A
C112        C156   1.531       .  S
O113        C126   1.286       .  A
O113       Cd120   2.134       .  S
O114        C132   1.262       .  A
O114       Cd123   2.010       .  S
O115        C129   1.278       .  A
O115       Cd119   2.068   1_565  S
O116        C127   1.281       .  A
O116       Cd119   2.071       .  S
Zn117       O128   2.042   1_545  S
Zn117       O130   1.916       .  S
Zn117       O122   1.950       .  S
O118        C129   1.289       .  A
O118       Cd123   2.154       .  S
Cd119       O121   2.041       .  S
Cd119       O122   1.978       .  S
Cd120       O124   2.190       .  S
Cd120       O133   2.148       .  S
Cd120       O122   2.014       .  S
O121        C131   1.266       .  A
O122       Cd123   2.015   1_545  S
Cd123       O125   2.172       .  S
O124        C131   1.290       .  A
C126        O130   1.257       .  A
C126        C147   1.473       .  S
C127        C138   1.505       .  S
C129        C183   1.511       .  S
C131        C174   1.510       .  S
C132        O133   1.291   1_565  A
C132        C322   1.489       .  S
C134       C1225   1.481       .  S
C134        C135   1.414       .  A
C134        C139   1.394       .  A
C135        C136   1.404   1_554  A
C135        H140   1.082       .  S
C136        C137   1.437       .  A
C137        C138   1.423       .  A
C137        H141   1.083       .  S
C138        C139   1.392   1_556  A
C139        H142   1.083       .  S
C143       C1205   1.458       .  S
C143        C144   1.408       .  A
C143        C148   1.386       .  A
C144        C145   1.409       .  A
C144        H149   1.084       .  S
C145        C146   1.420       .  A
C146        C147   1.427       .  A
C146        H150   1.083       .  S
C147        C148   1.384       .  A
C148        H151   1.085       .  S
C152       C1185   1.499       .  S
C152        C153   1.403       .  A
C152        C157   1.409       .  A
C153        C154   1.402       .  A
C153        H158   1.084       .  S
C154        C239   1.504       .  S
C154        C155   1.435       .  A
C155        C156   1.431       .  A
C155        H159   1.083       .  S
C156        C157   1.417       .  A
C157        H160   1.083       .  S
C161       C1165   1.487       .  S
C161        C162   1.409       .  A
C161        C166   1.410       .  A
C162        C163   1.392       .  A
C162        H167   1.081       .  S
C163        C277   1.494       .  S
C163        C164   1.401       .  A
C164        C165   1.425       .  A
C164        H168   1.083   1_655  S
C165        C235   1.491   1_655  S
C165        C166   1.409       .  A
C166        H169   1.083       .  S
C170       C1145   1.487       .  S
C170        C171   1.413   1_556  A
C170        C175   1.416       .  A
C171        C172   1.403       .  A
C171        H176   1.084       .  S
C172        C216   1.507       .  S
C172        C173   1.420       .  A
C173        C174   1.421   1_554  A
C173        H177   1.084       .  S
C174        C175   1.409       .  A
C175        H178   1.083       .  S
C179       C1125   1.482       .  S
C179        C180   1.394       .  A
C179        C184   1.424   1_554  A
C180        C181   1.385       .  A
C180        H185   1.084       .  S
C181        C236   1.480       .  S
C181        C182   1.416       .  A
C182        C183   1.419   1_554  A
C182        H186   1.083       .  S
C183        C184   1.410       .  A
C184        H187   1.082       .  S
C188       C1105   1.472       .  S
C188        C189   1.409       .  A
C188        C193   1.408       .  A
C189        C190   1.403       .  A
C189        H194   1.084       .  S
C190        C276   1.491       .  S
C190        C191   1.424       .  A
C191        C192   1.412       .  A
C191        H195   1.084       .  S
C192        C233   1.496       .  S
C192        C193   1.394       .  A
C193        H196   1.084       .  S
C197       C1094   1.477       .  S
C197        C198   1.396   1_556  A
C197        C202   1.414       .  A
C198        C199   1.391       .  A
C198        H203   1.085       .  S
C199        C230   1.480   1_655  S
C199        C200   1.425       .  A
C200        C201   1.416       .  A
C200        H204   1.082       .  S
C201        C202   1.401   1_554  A
C202        H205   1.083       .  S
C206       C1074   1.516       .  S
C206        C207   1.408       .  A
C206        C211   1.419       .  A
C207        C208   1.391       .  A
C207        H212   1.081       .  S
C208        C209   1.423       .  A
C209        C210   1.414       .  A
C209        H213   1.082       .  S
C210        C231   1.509   1_655  S
C210        C211   1.410       .  A
C211        H214   1.082       .  S
O215        C231   1.285       .  A
O215       Zn221   2.083       .  S
C216        O232   1.288       .  A
C216        O229   1.279       .  A
O217        C230   1.284       .  A
O217       Cd224   2.130       .  S
O218        C236   1.265   1_545  A
O218       Cd227   2.014       .  S
O219        C233   1.278   1_545  A
O219       Cd223   2.085       .  S
O220        C231   1.277       .  A
O220       Cd223   2.057       .  S
Zn221       O232   2.108       .  S
Zn221       O234   1.947       .  S
Zn221       O226   1.940       .  S
O222        C233   1.281   1_545  A
O222       Cd227   2.108       .  S
Cd223       O225   1.987       .  S
Cd223       O226   1.969       .  S
Cd224       O228   2.149   1_545  S
Cd224       O237   2.124       .  S
Cd224       O226   2.027       .  S
O225        C235   1.261   1_545  A
O226       Cd227   1.987       .  S
Cd227       O229   2.072       .  S
O228        C235   1.283       .  A
C230        O234   1.262       .  A
C236        O237   1.286   1_565  A
O238        C254   1.280       .  A
O238       Zn244   1.993       .  S
C239        O255   1.286       .  A
C239        O252   1.281       .  A
O240        C253   1.282       .  A
O240       Cd247   2.216       .  S
O241        C259   1.261       .  A
O241       Cd250   1.983       .  S
O242        C256   1.281       .  A
O242       Cd246   2.120       .  S
O243        C254   1.282       .  A
O243       Cd246   2.132       .  S
Zn244       O255   2.114       .  S
Zn244       O257   1.981       .  S
Zn244       O249   1.878       .  S
O245        C256   1.283       .  A
O245       Cd250   2.080       .  S
Cd246       O248   1.958       .  S
Cd246       O249   1.941       .  S
Cd247       O251   2.211       .  S
Cd247       O260   2.196       .  S
Cd247       O249   2.012       .  S
O248        C258   1.260       .  A
O249       Cd250   1.945       .  S
Cd250       O252   2.089       .  S
O251        C258   1.291       .  A
C253        O257   1.246       .  A
C253        C340   1.494       .  S
C254        C351   1.493       .  S
C256        C295   1.507       .  S
C258        C306   1.489       .  S
C259        O260   1.291       .  A
C259        C324   1.497       .  S
O261        C277   1.275   1_455  A
O261       Zn267   2.024       .  S
C262        O278   1.279       .  A
C262        O275   1.287       .  A
C262        C297   1.513       .  S
O263        C276   1.289       .  A
O263       Cd270   2.181       .  S
O264        C282   1.257       .  A
O264       Cd273   1.990       .  S
O265        C279   1.273       .  A
O265       Cd269   2.053       .  S
O266        C277   1.278       .  A
O266       Cd269   2.057       .  S
Zn267       O278   2.045       .  S
Zn267       O280   1.920       .  S
Zn267       O272   1.938       .  S
O268        C279   1.289       .  A
O268       Cd273   2.150   1_655  S
Cd269       O271   2.012       .  S
Cd269       O272   1.979   1_655  S
Cd270       O274   2.154       .  S
Cd270       O283   2.135       .  S
Cd270       O272   2.021       .  S
O271        C281   1.263       .  A
O272       Cd273   1.987       .  S
Cd273       O275   2.148       .  S
O274        C281   1.286   1_455  A
C276        O280   1.259       .  A
C279        C288   1.512       .  S
C281        C315   1.493       .  S
C282        O283   1.291       .  A
C282        C304   1.477       .  S
C284       C1045   1.474       .  S
C284        C285   1.403       .  A
C284        C289   1.413       .  A
C285        C286   1.396       .  A
C285        H290   1.083       .  S
C286        C287   1.426       .  A
C287        C288   1.425       .  A
C287        H291   1.083       .  S
C288        C289   1.400       .  A
C289        H292   1.084       .  S
C293       C1025   1.496   1_565  S
C293        C294   1.404       .  A
C293        C298   1.415       .  A
C294        C295   1.398       .  A
C294        H299   1.084       .  S
C295        C296   1.424       .  A
C296        C297   1.428       .  A
C296        H300   1.083       .  S
C297        C298   1.417       .  A
C298        H301   1.083       .  S
C302       C1005   1.483       .  S
C302        C303   1.381       .  A
C302        C307   1.410       .  A
C303        C304   1.389       .  A
C303        H308   1.086       .  S
C304        C305   1.423       .  A
C305        C306   1.416       .  A
C305        H309   1.084       .  S
C306        C307   1.420       .  A
C307        H310   1.083       .  S
C311        C994   1.487       .  S
C311        C312   1.408       .  A
C311        C316   1.410       .  A
C312        C313   1.395       .  A
C312        H317   1.082       .  S
C313        C314   1.412       .  A
C314        C315   1.423       .  A
C314        H318   1.083       .  S
C315        C316   1.400       .  A
C316        H319   1.081   1_655  S
C320        C974   1.479   1_565  S
C320        C321   1.394       .  A
C320        C325   1.400       .  A
C321        C322   1.389       .  A
C321        H326   1.081   1_565  S
C322        C323   1.426       .  A
C323        C324   1.415       .  A
C323        H327   1.083       .  S
C324        C325   1.422       .  A
C325        H328   1.084       .  S
C329        C945   1.492       .  S
C329        C330   1.390       .  A
C329        C334   1.426       .  A
C330        C331   1.390       .  A
C330        H335   1.084       .  S
C331        C332   1.417       .  A
C332        C333   1.415       .  A
C332        H336   1.083   1_554  S
C333        C334   1.422       .  A
C334        H337   1.082       .  S
C338        C934   1.467       .  S
C338        C339   1.404       .  A
C338        C343   1.396       .  A
C339        C340   1.397       .  A
C339        H344   1.082       .  S
C340        C341   1.423       .  A
C341        C342   1.428       .  A
C341        H345   1.084       .  S
C342        C343   1.386       .  A
C343        H346   1.084       .  S
C347        C905   1.465       .  S
C347        C348   1.389       .  A
C347        C352   1.395       .  A
C348        C349   1.402       .  A
C348        H353   1.080       .  S
C349        C350   1.435       .  A
C350        C351   1.436       .  A
C350        H354   1.083       .  S
C351        C352   1.384       .  A
C352        H355   1.085       .  S
C356        C885   1.498       .  S
C356        C357   1.404       .  A
C356        C361   1.419       .  A
C357        C358   1.398       .  A
C357        H362   1.083       .  S
C358        C359   1.414       .  A
C359        C360   1.424       .  A
C359        H363   1.084       .  S
C360        C361   1.415       .  A
C361        H364   1.083       .  S
C365        C865   1.464       .  S
C365        C366   1.405       .  A
C365        C370   1.380       .  A
C366        C367   1.408       .  A
C366        H371   1.084       .  S
C367        C368   1.417       .  A
C368        C369   1.428       .  A
C368        H372   1.083       .  S
C369        C370   1.389       .  A
C370        H373   1.084       .  S
C374        C845   1.486       .  S
C374        C375   1.416       .  A
C374        C379   1.412       .  A
C375        C376   1.406       .  A
C375        H380   1.083       .  S
C376        C377   1.427       .  A
C377        C378   1.417       .  A
C377        H381   1.084       .  S
C378        C379   1.402       .  A
C379        H382   1.084       .  S
C383        C834   1.492       .  S
C383        C384   1.405       .  A
C383        C388   1.398       .  A
C384        C385   1.382       .  A
C384        H389   1.074       .  S
C385        C386   1.418       .  A
C386        C387   1.423       .  A
C386        H390   1.076       .  S
C387        C388   1.413       .  A
C388        H391   1.083       .  S
C392        C805   1.498       .  S
C392        C393   1.399       .  A
C392        C397   1.426       .  A
C393        C394   1.385       .  A
C393        H398   1.080       .  S
C394        C395   1.409       .  A
C395        C396   1.410       .  A
C395        H399   1.080       .  S
C396        C397   1.412       .  A
C397        H400   1.081       .  S
O401        C417   1.284       .  A
O401       Zn407   2.108       .  S
C402        O418   1.283       .  A
C402        O415   1.283       .  A
C402        C522   1.504       .  S
O403        C416   1.295       .  A
O403       Cd410   2.207       .  S
O404        C422   1.266       .  A
O404       Cd413   2.024       .  S
O405        C419   1.278       .  A
O405       Cd409   2.064       .  S
O406        C417   1.275       .  A
O406       Cd409   2.077       .  S
Zn407       O418   2.080       .  S
Zn407       O420   1.908       .  S
Zn407       O412   1.933       .  S
O408        C419   1.279       .  A
O408       Cd413   2.109       .  S
Cd409       O411   1.974       .  S
Cd409       O412   1.997       .  S
Cd410       O414   2.194       .  S
Cd410       O423   2.195       .  S
Cd410       O412   2.037       .  S
O411        C421   1.257       .  A
O412       Cd413   1.991       .  S
Cd413       O415   2.120       .  S
O414        C421   1.292       .  A
C416        O420   1.258       .  A
C416        C767   1.490       .  S
C417        C677   1.502       .  S
C419        C650   1.507       .  S
C421        C686   1.493       .  S
C422        O423   1.294       .  A
C422        C659   1.503       .  S
O424        C440   1.286       .  A
O424       Zn430   2.131       .  S
C425        O441   1.283       .  A
C425        O438   1.288       .  A
C425        C668   1.513       .  S
O426        C439   1.296       .  A
O426       Cd433   2.189       .  S
O427        C445   1.261       .  A
O427       Cd436   2.015       .  S
O428        C442   1.282       .  A
O428       Cd432   2.111       .  S
O429        C440   1.276       .  A
O429       Cd432   2.040       .  S
Zn430       O441   2.082       .  S
Zn430       O443   1.924       .  S
Zn430       O435   1.886       .  S
O431        C442   1.289       .  A
O431       Cd436   2.143       .  S
Cd432       O434   2.014       .  S
Cd432       O435   1.914       .  S
Cd433       O437   2.182       .  S
Cd433       O446   2.199       .  S
Cd433       O435   2.033       .  S
O434        C444   1.246       .  A
O435       Cd436   1.934       .  S
Cd436       O438   2.091       .  S
O437        C444   1.281       .  A
C439        O443   1.265       .  A
C439        C724   1.481       .  S
C440        C451   1.497       .  S
C442        C751   1.503       .  S
C444        C760   1.488       .  S
C445        O446   1.289       .  A
C445        C706   1.506       .  S
C447       C1214   1.469       .  S
C447        C448   1.392       .  A
C447        C452   1.397       .  A
C448        C449   1.405       .  A
C448        H453   1.081       .  S
C449        C472   1.510       .  S
C449        C450   1.432       .  A
C450        C451   1.432       .  A
C450        H454   1.083       .  S
C451        C452   1.394       .  A
C452        H455   1.085       .  S
O456        C472   1.284       .  A
O456       Zn462   2.033       .  S
C457        O473   1.272       .  A
C457        O470   1.280       .  A
C457        C524   1.492       .  S
O458        C471   1.288       .  A
O458       Cd465   2.174       .  S
O459        C477   1.258       .  A
O459       Cd468   1.976       .  S
O460        C474   1.286       .  A
O460       Cd464   2.144       .  S
O461        C472   1.279       .  A
O461       Cd464   2.101       .  S
Zn462       O473   2.030       .  S
Zn462       O475   2.014       .  S
Zn462       O467   1.933       .  S
O463        C474   1.277       .  A
O463       Cd468   2.108       .  S
Cd464       O466   1.979       .  S
Cd464       O467   1.994       .  S
Cd465       O469   2.158       .  S
Cd465       O478   2.178       .  S
Cd465       O467   2.012       .  S
O466        C476   1.260       .  A
O467       Cd468   2.003       .  S
Cd468       O470   2.060       .  S
O469        C476   1.291       .  A
C471        O475   1.271       .  A
C471        C769   1.505       .  S
C474        C483   1.525       .  S
C476        C758   1.487       .  S
C477        O478   1.294       .  A
C477        C731   1.483       .  S
C479        C814   1.464       .  S
C479        C480   1.383       .  A
C479        C484   1.408       .  A
C480        C481   1.390       .  A
C480        H485   1.086       .  S
C481        C498   1.485       .  S
C481        C482   1.434       .  A
C482        C483   1.431       .  A
C482        H486   1.083       .  S
C483        C484   1.411       .  A
C484        H487   1.082       .  S
C488        C925   1.468       .  S
C488        C489   1.409       .  A
C488        C493   1.387       .  A
C489        C490   1.401   1_556  A
C489        H494   1.084       .  S
C490        C515   1.513       .  S
C490        C491   1.434       .  A
C491        C492   1.435       .  A
C491        H495   1.081       .  S
C492        C530   1.502       .  S
C492        C493   1.391   1_554  A
C493        H496   1.084       .  S
O497        C513   1.282   1_554  A
O497       Zn503   2.062       .  S
C498        O514   1.283       .  A
C498        O511   1.275       .  A
O499        C512   1.289       .  A
O499       Cd506   2.181       .  S
O500        C518   1.261       .  A
O500       Cd509   1.995       .  S
O501        C515   1.289   1_556  A
O501       Cd505   2.150   1_556  S
O502        C513   1.290       .  A
O502       Cd505   2.160   1_556  S
Zn503       O514   2.036       .  S
Zn503       O516   1.995       .  S
Zn503       O508   1.931       .  S
O504        C515   1.283       .  A
O504       Cd509   2.130       .  S
Cd505       O507   2.038       .  S
Cd505       O508   2.022       .  S
Cd506       O510   2.125       .  S
Cd506       O519   2.163       .  S
Cd506       O508   2.005       .  S
O507        C517   1.265       .  A
O508       Cd509   1.980       .  S
Cd509       O511   2.084       .  S
O510        C517   1.289       .  A
C512        O516   1.267       .  A
C512        C733   1.501       .  S
C513        C740   1.521       .  S
C517        C715   1.492       .  S
C518        O519   1.287       .  A
C518        C697   1.474       .  S
C520       C1014   1.464       .  S
C520        C521   1.404       .  A
C520        C525   1.387       .  A
C521        C522   1.396       .  A
C521        H526   1.075       .  S
C522        C523   1.424       .  A
C523        C524   1.430       .  A
C523        H527   1.083       .  S
C524        C525   1.402       .  A
C525        H528   1.084       .  S
O529        C545   1.282       .  A
O529       Zn535   2.034   1_545  S
C530        O546   1.270       .  A
C530        O543   1.284       .  A
O531        C544   1.281       .  A
O531       Cd538   2.100       .  S
O532        C550   1.267       .  A
O532       Cd541   2.037       .  S
O533        C547   1.281       .  A
O533       Cd537   2.074       .  S
O534        C545   1.281       .  A
O534       Cd537   2.133       .  S
Zn535       O546   2.022       .  S
Zn535       O548   1.929       .  S
Zn535       O540   1.928       .  S
O536        C547   1.279       .  A
O536       Cd541   2.111   1_545  S
Cd537       O539   1.993       .  S
Cd537       O540   1.993   1_545  S
Cd538       O542   2.116       .  S
Cd538       O551   2.176       .  S
Cd538       O540   1.981       .  S
O539        C549   1.259       .  A
O540       Cd541   1.969       .  S
Cd541       O543   2.056       .  S
O542        C549   1.287   1_565  A
C544        O548   1.261       .  A
C544        C695   1.455       .  S
C545        C749   1.521       .  S
C547        C787   1.500       .  S
C549        C704   1.481       .  S
C550        O551   1.289       .  A
C550        C554   1.491       .  S
C552       C1274   1.501       .  S
C552        C553   1.415   1_556  A
C552        C557   1.419       .  A
C553        C554   1.403       .  A
C553        H558   1.084       .  S
C554        C555   1.411   1_554  A
C555        C556   1.416       .  A
C555        H559   1.085       .  S
C556        C613   1.500       .  S
C556        C557   1.412       .  A
C557        H560   1.083       .  S
O561        C577   1.296       .  A
O561       Zn567   2.125   1_455  S
C562        O578   1.290       .  A
C562        O575   1.282       .  A
C562        C670   1.509       .  S
O563        C576   1.287       .  A
O563       Cd570   2.139       .  S
O564        C582   1.258       .  A
O564       Cd573   2.013       .  S
O565        C579   1.285       .  A
O565       Cd569   2.109       .  S
O566        C577   1.275       .  A
O566       Cd569   2.090       .  S
Zn567       O578   2.112       .  S
Zn567       O580   1.936       .  S
Zn567       O572   1.922       .  S
O568        C579   1.279       .  A
O568       Cd573   2.083   1_455  S
Cd569       O571   1.988       .  S
Cd569       O572   1.970   1_455  S
Cd570       O574   2.188       .  S
Cd570       O583   2.226       .  S
Cd570       O572   2.035       .  S
O571        C581   1.263       .  A
O572       Cd573   1.975       .  S
Cd573       O575   2.102       .  S
O574        C581   1.293   1_655  A
C576        O580   1.258       .  A
C576        C722   1.472       .  S
C577        C679   1.526       .  S
C579        C796   1.499       .  S
C581        C688   1.485       .  S
C582        O583   1.289       .  A
C582        C586   1.516       .  S
C584       C1194   1.485       .  S
C584        C585   1.422       .  A
C584        C589   1.408       .  A
C585        C586   1.416       .  A
C585        H590   1.083       .  S
C586        C587   1.427       .  A
C587        C588   1.411       .  A
C587        H591   1.084       .  S
C588        C608   1.494       .  S
C588        C589   1.391       .  A
C589        H592   1.085       .  S
O593        C609   1.282       .  A
O593       Zn599   2.068       .  S
C594        O610   1.281   1_455  A
C594        O607   1.278       .  A
C594        C794   1.492       .  S
O595        C608   1.290       .  A
O595       Cd602   2.155   1_545  S
O596        C614   1.261       .  A
O596       Cd605   2.008       .  S
O597        C611   1.276       .  A
O597       Cd601   2.083       .  S
O598        C609   1.279   1_565  A
O598       Cd601   2.045       .  S
Zn599       O610   2.068       .  S
Zn599       O612   2.001       .  S
Zn599       O604   1.907   1_545  S
O600        C611   1.282   1_455  A
O600       Cd605   2.107   1_455  S
Cd601       O603   2.030       .  S
Cd601       O604   1.966       .  S
Cd602       O606   2.192       .  S
Cd602       O615   2.132       .  S
Cd602       O604   1.999       .  S
O603        C613   1.266       .  A
O604       Cd605   1.999       .  S
Cd605       O607   2.085   1_665  S
O606        C613   1.291       .  A
C608        O612   1.272       .  A
C609        C785   1.478   1_556  S
C611        C778   1.503       .  S
C614        O615   1.290       .  A
C614        C643   1.490       .  S
O616        C632   1.283       .  A
O616       Zn622   2.055       .  S
C617        O633   1.269       .  A
C617        O630   1.282       .  A
C617        C661   1.503       .  S
O618        C631   1.286       .  A
O618       Cd625   2.139       .  S
O619        C637   1.265       .  A
O619       Cd628   2.014       .  S
O620        C634   1.279       .  A
O620       Cd624   2.098       .  S
O621        C632   1.282       .  A
O621       Cd624   2.089       .  S
Zn622       O633   2.012       .  S
Zn622       O635   1.963       .  S
Zn622       O627   1.951       .  S
O623        C634   1.276       .  A
O623       Cd628   2.105       .  S
Cd624       O626   1.953       .  S
Cd624       O627   1.962       .  S
Cd625       O629   2.140       .  S
Cd625       O638   2.174       .  S
Cd625       O627   2.005       .  S
O626        C636   1.256       .  A
O627       Cd628   1.977       .  S
Cd628       O630   2.042       .  S
O629        C636   1.286       .  A
C631        O635   1.265       .  A
C631        C652   1.483       .  S
C632        C641   1.508       .  S
C634        C713   1.507       .  S
C636        C776   1.479       .  S
C637        O638   1.292       .  A
C637        C742   1.491       .  S
C639       C1054   1.478       .  S
C639        C640   1.403   1_655  A
C639        C644   1.388       .  A
C640        C641   1.410       .  A
C640        H645   1.084       .  S
C641        C642   1.422       .  A
C642        C643   1.433   1_455  A
C642        H646   1.083       .  S
C643        C644   1.394       .  A
C644        H647   1.083       .  S
C648        C854   1.498       .  S
C648        C649   1.414       .  A
C648        C653   1.406       .  A
C649        C650   1.412       .  A
C649        H654   1.082       .  S
C650        C651   1.415       .  A
C651        C652   1.419       .  A
C651        H655   1.083       .  S
C652        C653   1.393       .  A
C653        H656   1.079       .  S
C657        C874   1.482       .  S
C657        C658   1.412       .  A
C657        C662   1.392       .  A
C658        C659   1.406       .  A
C658        H663   1.082       .  S
C659        C660   1.434       .  A
C660        C661   1.420       .  A
C660        H664   1.082       .  S
C661        C662   1.387       .  A
C662        H665   1.079       .  S
C666        C894   1.485   1_545  S
C666        C667   1.402       .  A
C666        C671   1.410       .  A
C667        C668   1.402       .  A
C667        H672   1.084       .  S
C668        C669   1.429       .  A
C669        C670   1.430       .  A
C669        H673   1.083       .  S
C670        C671   1.410       .  A
C671        H674   1.083       .  S
C675       C1065   1.467       .  S
C675        C676   1.397       .  A
C675        C680   1.405       .  A
C676        C677   1.400       .  A
C676        H681   1.084       .  S
C677        C678   1.440       .  A
C678        C679   1.436       .  A
C678        H682   1.083       .  S
C679        C680   1.393       .  A
C680        H683   1.084       .  S
C684       C1085   1.455       .  S
C684        C685   1.402       .  A
C684        C689   1.408       .  A
C685        C686   1.395       .  A
C685        H690   1.083       .  S
C686        C687   1.428       .  A
C687        C688   1.418       .  A
C687        H691   1.084       .  S
C688        C689   1.388       .  A
C689        H692   1.087   1_455  S
C693        C914   1.459       .  S
C693        C694   1.387       .  A
C693        C698   1.408       .  A
C694        C695   1.381       .  A
C694        H699   1.086       .  S
C695        C696   1.409       .  A
C696        C697   1.413       .  A
C696        H700   1.083       .  S
C697        C698   1.405       .  A
C698        H701   1.084       .  S
C702       C1174   1.488       .  S
C702        C703   1.395       .  A
C702        C707   1.411   1_565  A
C703        C704   1.382   1_565  A
C703        H708   1.080       .  S
C704        C705   1.419       .  A
C705        C706   1.411       .  A
C705        H709   1.078       .  S
C706        C707   1.425       .  A
C707        H710   1.083       .  S
C711       C1134   1.482       .  S
C711        C712   1.403   1_554  A
C711        C716   1.389       .  A
C712        C713   1.405       .  A
C712        H717   1.083       .  S
C713        C714   1.422       .  A
C714        C715   1.434   1_556  A
C714        H718   1.083       .  S
C715        C716   1.400       .  A
C716        H719   1.083       .  S
C720        C825   1.475       .  S
C720        C721   1.396       .  A
C720        C725   1.416       .  A
C721        C722   1.379       .  A
C721        H726   1.086       .  S
C722        C723   1.407       .  A
C723        C724   1.418       .  A
C723        H727   1.085       .  S
C724        C725   1.415       .  A
C725        H728   1.084       .  S
C729       C1254   1.498       .  S
C729        C730   1.409       .  A
C729        C734   1.423       .  A
C730        C731   1.384       .  A
C730        H735   1.082       .  S
C731        C732   1.416       .  A
C732        C733   1.414       .  A
C732        H736   1.084       .  S
C733        C734   1.412       .  A
C734        H737   1.081       .  S
C738       C1154   1.511       .  S
C738        C739   1.422       .  A
C738        C743   1.410       .  A
C739        C740   1.416       .  A
C739        H744   1.079       .  S
C740        C741   1.416       .  A
C741        C742   1.423       .  A
C741        H745   1.084       .  S
C742        C743   1.396       .  A
C743        H746   1.081       .  S
C747       C1114   1.476       .  S
C747        C748   1.397       .  A
C747        C752   1.399       .  A
C748        C749   1.405       .  A
C748        H753   1.084       .  S
C749        C750   1.433       .  A
C750        C751   1.437       .  A
C750        H754   1.081       .  S
C751        C752   1.402       .  A
C752        H755   1.084       .  S
C756       C1234   1.466       .  S
C756        C757   1.401       .  A
C756        C761   1.407       .  A
C757        C758   1.381       .  A
C757        H762   1.083       .  S
C758        C759   1.421       .  A
C759        C760   1.417       .  A
C759        H763   1.084       .  S
C760        C761   1.398       .  A
C761        H764   1.082       .  S
C765       C1034   1.501       .  S
C765        C766   1.414       .  A
C765        C770   1.419       .  A
C766        C767   1.399       .  A
C766        H771   1.084       .  S
C767        C768   1.420       .  A
C768        C769   1.417       .  A
C768        H772   1.084       .  S
C769        C770   1.407       .  A
C770        H773   1.082       .  S
C774        C985   1.495       .  S
C774        C775   1.407   1_655  A
C774        C779   1.421       .  A
C775        C776   1.387       .  A
C775        H780   1.079       .  S
C776        C777   1.416       .  A
C777        C778   1.400   1_455  A
C777        H781   1.083       .  S
C778        C779   1.409       .  A
C779        H782   1.081       .  S
C783        C954   1.494       .  S
C783        C784   1.398       .  A
C783        C788   1.410       .  A
C784        C785   1.403       .  A
C784        H789   1.084       .  S
C785        C786   1.425       .  A
C786        C787   1.412       .  A
C786        H790   1.083   1_554  S
C787        C788   1.404       .  A
C788        H791   1.082       .  S
C792        C965   1.493       .  S
C792        C793   1.414       .  A
C792        C797   1.410       .  A
C793        C794   1.412       .  A
C793        H798   1.083       .  S
C794        C795   1.422       .  A
C795        C796   1.412       .  A
C795        H799   1.084   1_455  S
C796        C797   1.391       .  A
C797        H800   1.079       .  S
C801        C802   1.399       .  A
C801        C806   1.397       .  A
C801        H811   1.084       .  S
C802        C807   1.492       .  S
C802        C803   1.413       .  A
C803        C804   1.391       .  A
C803        F808   1.357       .  S
C804        C805   1.397       .  A
C804        H809   1.077       .  S
C805        C806   1.426       .  A
C806        F810   1.357       .  S
C807        C812   1.416       .  A
C807        C816   1.404       .  A
C812        C813   1.395       .  A
C812        F817   1.356       .  S
C813        C814   1.395       .  A
C813        H818   1.083       .  S
C814        C815   1.407       .  A
C815        C816   1.400       .  A
C815        F819   1.358       .  S
C816        H820   1.083       .  S
C821        C822   1.411       .  A
C821        C826   1.386       .  A
C821        H831   1.083       .  S
C822        C827   1.495       .  S
C822        C823   1.408       .  A
C823        C824   1.406       .  A
C823        F828   1.356       .  S
C824        C825   1.412       .  A
C824        H829   1.083       .  S
C825        C826   1.402       .  A
C826        F830   1.359       .  S
C827        C832   1.413       .  A
C827        C836   1.412       .  A
C832        C833   1.406       .  A
C832        F837   1.355       .  S
C833        C834   1.409       .  A
C833        H838   1.083       .  S
C834        C835   1.402       .  A
C835        C836   1.403       .  A
C835        F839   1.357       .  S
C836        H840   1.083       .  S
C841        C842   1.406       .  A
C841        C846   1.405       .  A
C841        H851   1.083       .  S
C842        C847   1.478       .  S
C842        C843   1.401       .  A
C843        C844   1.395       .  A
C843        F848   1.357       .  S
C844        C845   1.405       .  A
C844        H849   1.083       .  S
C845        C846   1.408       .  A
C846        F850   1.357       .  S
C847        C852   1.400       .  A
C847        C856   1.399       .  A
C852        C853   1.392       .  A
C852        F857   1.349       .  S
C853        C854   1.407   1_655  A
C853        H858   1.081       .  S
C854        C855   1.416   1_455  A
C855        C856   1.402       .  A
C855        F859   1.357   1_655  S
C856        H860   1.083       .  S
C861        C862   1.407       .  A
C861        C866   1.397       .  A
C861        H871   1.079       .  S
C862        C867   1.487       .  S
C862        C863   1.410       .  A
C863        C864   1.391       .  A
C863        F868   1.357       .  S
C864        C865   1.401       .  A
C864        H869   1.084       .  S
C865        C866   1.407       .  A
C866        F870   1.357       .  S
C867        C872   1.400       .  A
C867        C876   1.417       .  A
C872        C873   1.389       .  A
C872        F877   1.357       .  S
C873        C874   1.413       .  A
C873        H878   1.081       .  S
C874        C875   1.399       .  A
C875        C876   1.390       .  A
C875        F879   1.357       .  S
C876        H880   1.081       .  S
C881        C882   1.400       .  A
C881        C886   1.396       .  A
C881        H891   1.084       .  S
C882        C887   1.487       .  S
C882        C883   1.409       .  A
C883        C884   1.406       .  A
C883        F888   1.357       .  S
C884        C885   1.407       .  A
C884        H889   1.083       .  S
C885        C886   1.415       .  A
C886        F890   1.356       .  S
C887        C892   1.411       .  A
C887        C896   1.402       .  A
C892        C893   1.404       .  A
C892        F897   1.358       .  S
C893        C894   1.404       .  A
C893        H898   1.083       .  S
C894        C895   1.407       .  A
C895        C896   1.398       .  A
C895        F899   1.355       .  S
C896        H900   1.083       .  S
C901        C902   1.404       .  A
C901        C906   1.389       .  A
C901        H911   1.084       .  S
C902        C907   1.460       .  S
C902        C903   1.400       .  A
C903        C904   1.386       .  A
C903        F908   1.357       .  S
C904        C905   1.404       .  A
C904        H909   1.084       .  S
C905        C906   1.401       .  A
C906        F910   1.355       .  S
C907        C912   1.398       .  A
C907        C916   1.408       .  A
C912        C913   1.390       .  A
C912        F917   1.357       .  S
C913        C914   1.406       .  A
C913        H918   1.084       .  S
C914        C915   1.396       .  A
C915        C916   1.388       .  A
C915        F919   1.358       .  S
C916        H920   1.084       .  S
C921        C922   1.398       .  A
C921        C926   1.389       .  A
C921        H931   1.077       .  S
C922        C927   1.463       .  S
C922        C923   1.404       .  A
C923        C924   1.392       .  A
C923        F928   1.358       .  S
C924        C925   1.401       .  A
C924        H929   1.083       .  S
C925        C926   1.410       .  A
C926        F930   1.358       .  S
C927        C932   1.412       .  A
C927        C936   1.395       .  A
C932        C933   1.383       .  A
C932        F937   1.357       .  S
C933        C934   1.393       .  A
C933        H938   1.083       .  S
C934        C935   1.414       .  A
C935        C936   1.393       .  A
C935        F939   1.358       .  S
C936        H940   1.083       .  S
C941        C942   1.404       .  A
C941        C946   1.404       .  A
C941        H951   1.081       .  S
C942        C947   1.490       .  S
C942        C943   1.413       .  A
C943        C944   1.387       .  A
C943        F948   1.357       .  S
C944        C945   1.406       .  A
C944        H949   1.083       .  S
C945        C946   1.413       .  A
C946        F950   1.356       .  S
C947        C952   1.410       .  A
C947        C956   1.406       .  A
C952        C953   1.398       .  A
C952        F957   1.354       .  S
C953        C954   1.403       .  A
C953        H958   1.081       .  S
C954        C955   1.409       .  A
C955        C956   1.400       .  A
C955        F959   1.356   1_545  S
C956        H960   1.086       .  S
C961        C962   1.408       .  A
C961        C966   1.401       .  A
C961        H971   1.078       .  S
C962        C967   1.490       .  S
C962        C963   1.402       .  A
C963        C964   1.401       .  A
C963        F968   1.356       .  S
C964        C965   1.414       .  A
C964        H969   1.083       .  S
C965        C966   1.404       .  A
C966        F970   1.357       .  S
C967        C972   1.415       .  A
C967        C976   1.403       .  A
C972        C973   1.399       .  A
C972        F977   1.354       .  S
C973        C974   1.398       .  A
C973        H978   1.083       .  S
C974        C975   1.412       .  A
C975        C976   1.402       .  A
C975        F979   1.357       .  S
C976        H980   1.083       .  S
C981        C982   1.397       .  A
C981        C986   1.402   1_554  A
C981        H991   1.083       .  S
C982        C987   1.473       .  S
C982        C983   1.405       .  A
C983        C984   1.385       .  A
C983        F988   1.359       .  S
C984        C985   1.405   1_554  A
C984        H989   1.080       .  S
C985        C986   1.420       .  A
C986        F990   1.358       .  S
C987        C992   1.398       .  A
C987        C996   1.399   1_655  A
C992        C993   1.399       .  A
C992        F997   1.357       .  S
C993        C994   1.415       .  A
C993        H998   1.083       .  S
C994        C995   1.407   1_655  A
C995        C996   1.385       .  A
C995        F999   1.357       .  S
C996       H1000   1.074       .  S
C1001      C1002   1.423       .  A
C1001      C1006   1.401       .  A
C1001      H1011   1.082       .  S
C1002      C1007   1.515       .  S
C1002      C1003   1.408       .  A
C1003      C1004   1.391       .  A
C1003      F1008   1.356       .  S
C1004      C1005   1.409       .  A
C1004      H1009   1.082       .  S
C1005      C1006   1.400       .  A
C1006      F1010   1.357       .  S
C1007      C1012   1.415       .  A
C1007      C1016   1.408       .  A
C1012      C1013   1.400       .  A
C1012      F1017   1.356       .  S
C1013      C1014   1.401       .  A
C1013      H1018   1.083       .  S
C1014      C1015   1.410       .  A
C1015      C1016   1.404       .  A
C1015      F1019   1.357       .  S
C1016      H1020   1.083       .  S
C1021      C1022   1.405       .  A
C1021      C1026   1.396       .  A
C1021      H1031   1.082       .  S
C1022      C1027   1.503       .  S
C1022      C1023   1.416       .  A
C1023      C1024   1.409       .  A
C1023      F1028   1.357       .  S
C1024      C1025   1.405       .  A
C1024      H1029   1.083       .  S
C1025      C1026   1.410       .  A
C1026      F1030   1.357       .  S
C1027      C1032   1.412       .  A
C1027      C1036   1.409       .  A
C1032      C1033   1.399       .  A
C1032      F1037   1.357       .  S
C1033      C1034   1.408       .  A
C1033      H1038   1.082       .  S
C1034      C1035   1.411       .  A
C1035      C1036   1.405       .  A
C1035      F1039   1.357       .  S
C1036      H1040   1.082       .  S
C1041      C1042   1.408       .  A
C1041      C1046   1.391       .  A
C1041      H1051   1.083   1_655  S
C1042      C1047   1.474       .  S
C1042      C1043   1.405       .  A
C1043      C1044   1.396       .  A
C1043      F1048   1.357       .  S
C1044      C1045   1.406       .  A
C1044      H1049   1.083       .  S
C1045      C1046   1.401       .  A
C1046      F1050   1.358   1_655  S
C1047      C1052   1.405       .  A
C1047      C1056   1.402       .  A
C1052      C1053   1.398       .  A
C1052      F1057   1.354       .  S
C1053      C1054   1.405       .  A
C1053      H1058   1.083   1_655  S
C1054      C1055   1.409       .  A
C1055      C1056   1.388       .  A
C1055      F1059   1.358       .  S
C1056      H1060   1.084       .  S
C1061      C1062   1.399       .  A
C1061      C1066   1.397   1_655  A
C1061      H1071   1.080       .  S
C1062      C1067   1.475       .  S
C1062      C1063   1.408   1_655  A
C1063      C1064   1.394       .  A
C1063      F1068   1.358       .  S
C1064      C1065   1.401       .  A
C1064      H1069   1.083       .  S
C1065      C1066   1.409       .  A
C1066      F1070   1.358   1_455  S
C1067      C1072   1.415       .  A
C1067      C1076   1.406       .  A
C1072      C1073   1.402       .  A
C1072      F1077   1.357   1_655  S
C1073      C1074   1.406       .  A
C1073      H1078   1.083       .  S
C1074      C1075   1.412       .  A
C1075      C1076   1.405       .  A
C1075      F1079   1.356       .  S
C1076      H1080   1.081       .  S
C1081      C1082   1.403       .  A
C1081      C1086   1.393       .  A
C1081      H1091   1.083       .  S
C1082      C1087   1.461       .  S
C1082      C1083   1.392       .  A
C1083      C1084   1.389       .  A
C1083      F1088   1.347       .  S
C1084      C1085   1.404       .  A
C1084      H1089   1.084       .  S
C1085      C1086   1.400       .  A
C1086      F1090   1.357       .  S
C1087      C1092   1.402   1_455  A
C1087      C1096   1.394       .  A
C1092      C1093   1.392       .  A
C1092      F1097   1.357       .  S
C1093      C1094   1.403       .  A
C1093      H1098   1.083       .  S
C1094      C1095   1.417   1_655  A
C1095      C1096   1.389       .  A
C1095      F1099   1.358       .  S
C1096      H1100   1.084       .  S
C1101      C1102   1.404       .  A
C1101      C1106   1.395       .  A
C1101      H1111   1.083       .  S
C1102      C1107   1.476       .  S
C1102      C1103   1.405       .  A
C1103      C1104   1.398       .  A
C1103      F1108   1.357       .  S
C1104      C1105   1.404       .  A
C1104      H1109   1.084       .  S
C1105      C1106   1.404       .  A
C1106      F1110   1.358       .  S
C1107      C1112   1.402       .  A
C1107      C1116   1.408   1_565  A
C1112      C1113   1.395       .  A
C1112      F1117   1.358       .  S
C1113      C1114   1.407   1_565  A
C1113      H1118   1.084       .  S
C1114      C1115   1.402       .  A
C1115      C1116   1.400       .  A
C1115      F1119   1.357       .  S
C1116      H1120   1.083       .  S
C1121      C1122   1.414   1_556  A
C1121      C1126   1.392       .  A
C1121      H1131   1.077       .  S
C1122      C1127   1.502       .  S
C1122      C1123   1.409       .  A
C1123      C1124   1.395       .  A
C1123      F1128   1.355       .  S
C1124      C1125   1.410       .  A
C1124      H1129   1.082       .  S
C1125      C1126   1.389   1_554  A
C1126      F1130   1.351       .  S
C1127      C1132   1.409       .  A
C1127      C1136   1.409       .  A
C1132      C1133   1.403       .  A
C1132      F1137   1.355   1_554  S
C1133      C1134   1.410       .  A
C1133      H1138   1.083   1_554  S
C1134      C1135   1.410       .  A
C1135      C1136   1.394       .  A
C1135      F1139   1.357       .  S
C1136      H1140   1.081       .  S
C1141      C1142   1.406       .  A
C1141      C1146   1.403       .  A
C1141      H1151   1.083       .  S
C1142      C1147   1.494       .  S
C1142      C1143   1.410       .  A
C1143      C1144   1.404       .  A
C1143      F1148   1.357       .  S
C1144      C1145   1.405       .  A
C1144      H1149   1.083       .  S
C1145      C1146   1.407       .  A
C1146      F1150   1.357       .  S
C1147      C1152   1.407       .  A
C1147      C1156   1.401       .  A
C1152      C1153   1.404       .  A
C1152      F1157   1.357   1_556  S
C1153      C1154   1.410       .  A
C1153      H1158   1.081   1_556  S
C1154      C1155   1.420       .  A
C1155      C1156   1.402       .  A
C1155      F1159   1.356       .  S
C1156      H1160   1.083       .  S
C1161      C1162   1.402       .  A
C1161      C1166   1.404       .  A
C1161      H1171   1.083       .  S
C1162      C1167   1.479       .  S
C1162      C1163   1.411       .  A
C1163      C1164   1.396       .  A
C1163      F1168   1.353       .  S
C1164      C1165   1.398       .  A
C1164      H1169   1.083       .  S
C1165      C1166   1.413       .  A
C1166      F1170   1.357       .  S
C1167      C1172   1.401       .  A
C1167      C1176   1.408       .  A
C1172      C1173   1.404       .  A
C1172      F1177   1.357       .  S
C1173      C1174   1.415       .  A
C1173      H1178   1.084       .  S
C1174      C1175   1.402       .  A
C1175      C1176   1.398       .  A
C1175      F1179   1.357       .  S
C1176      H1180   1.081       .  S
C1181      C1182   1.408   1_565  A
C1181      C1186   1.404       .  A
C1181      H1191   1.083       .  S
C1182      C1187   1.499       .  S
C1182      C1183   1.410       .  A
C1183      C1184   1.403       .  A
C1183      F1188   1.357       .  S
C1184      C1185   1.408   1_545  A
C1184      H1189   1.084       .  S
C1185      C1186   1.410       .  A
C1186      F1190   1.357       .  S
C1187      C1192   1.410       .  A
C1187      C1196   1.411       .  A
C1192      C1193   1.399       .  A
C1192      F1197   1.357       .  S
C1193      C1194   1.404       .  A
C1193      H1198   1.084       .  S
C1194      C1195   1.404       .  A
C1195      C1196   1.407       .  A
C1195      F1199   1.356       .  S
C1196      H1200   1.083       .  S
C1201      C1202   1.409       .  A
C1201      C1206   1.388       .  A
C1201      H1211   1.083       .  S
C1202      C1207   1.472       .  S
C1202      C1203   1.405       .  A
C1203      C1204   1.394       .  A
C1203      F1208   1.357       .  S
C1204      C1205   1.403       .  A
C1204      H1209   1.084       .  S
C1205      C1206   1.395       .  A
C1206      F1210   1.358       .  S
C1207      C1212   1.403       .  A
C1207      C1216   1.408       .  A
C1212      C1213   1.391       .  A
C1212      F1217   1.358       .  S
C1213      C1214   1.403       .  A
C1213      H1218   1.084       .  S
C1214      C1215   1.400       .  A
C1215      C1216   1.393       .  A
C1215      F1219   1.357       .  S
C1216      H1220   1.083       .  S
C1221      C1222   1.406       .  A
C1221      C1226   1.395       .  A
C1221      H1231   1.084       .  S
C1222      C1227   1.453       .  S
C1222      C1223   1.391       .  A
C1223      C1224   1.386       .  A
C1223      F1228   1.358       .  S
C1224      C1225   1.415       .  A
C1224      H1229   1.081       .  S
C1225      C1226   1.404       .  A
C1226      F1230   1.358       .  S
C1227      C1232   1.408       .  A
C1227      C1236   1.392       .  A
C1232      C1233   1.383       .  A
C1232      F1237   1.358       .  S
C1233      C1234   1.396       .  A
C1233      H1238   1.083       .  S
C1234      C1235   1.414       .  A
C1235      C1236   1.391       .  A
C1235      F1239   1.358       .  S
C1236      H1240   1.083       .  S
C1241      C1242   1.406       .  A
C1241      C1246   1.390       .  A
C1241      H1251   1.081       .  S
C1242      C1247   1.489       .  S
C1242      C1243   1.410       .  A
C1243      C1244   1.399       .  A
C1243      F1248   1.357       .  S
C1244      C1245   1.405       .  A
C1244      H1249   1.083       .  S
C1245      C1246   1.406       .  A
C1246      F1250   1.358       .  S
C1247      C1252   1.404       .  A
C1247      C1256   1.409       .  A
C1252      C1253   1.390       .  A
C1252      F1257   1.358       .  S
C1253      C1254   1.412       .  A
C1253      H1258   1.082       .  S
C1254      C1255   1.410       .  A
C1255      C1256   1.401       .  A
C1255      F1259   1.356       .  S
C1256      H1260   1.082       .  S
C1261      C1262   1.404   1_554  A
C1261      C1266   1.403       .  A
C1261      H1271   1.083       .  S
C1262      C1267   1.490       .  S
C1262      C1263   1.407       .  A
C1263      C1264   1.407       .  A
C1263      F1268   1.357       .  S
C1264      C1265   1.407       .  A
C1264      H1269   1.083       .  S
C1265      C1266   1.409   1_556  A
C1266      F1270   1.358       .  S
C1267      C1272   1.404       .  A
C1267      C1276   1.405       .  A
C1272      C1273   1.404       .  A
C1272      F1277   1.357       .  S
C1273      C1274   1.410       .  A
C1273      H1278   1.083       .  S
C1274      C1275   1.412       .  A
C1275      C1276   1.407       .  A
C1275      F1279   1.357       .  S
C1276      H1280   1.083       .  S
