geometry optimzed in LAMMPS
_audit_creation_date              2020-11-30 
_audit_creation_method            'lammps2cif' 
_symmetry_space_group_name_H-M    'P1' 
_symmetry_Int_Tables_number       1 
_symmetry_cell_setting            triclinic 
loop_ 
_symmetry_equiv_pos_as_xyz 
  x,y,z 
_cell_length_a                    40.12514328 
_cell_length_b                    26.599704758216923 
_cell_length_c                    34.38993777131203 
_cell_angle_alpha                 89.24069476005762 
_cell_angle_beta                  89.88356968703987 
_cell_angle_gamma                 90.67087816448611 
loop_ 
_atom_site_label 
_atom_site_type_symbol 
_atom_site_fract_x 
_atom_site_fract_y 
_atom_site_fract_z 
_atom_site_charge 
In1        In  0.20774395  0.64738779  0.25441378     1.36900
C2          C  0.22589544  0.55175001  0.25514845     0.79500
O3          O  0.20441632  0.64445235  0.19033703    -0.59000
O4          O  0.24708705  0.68084324  0.21496331    -0.49900
C5          C  0.15531800  0.70598007  0.24874079     0.72100
O6          O  0.15247359  0.65835450  0.24964774    -0.44700
C7          C  0.21970848  0.66525679  0.32828024     0.76900
O8          O  0.19571230  0.56429379  0.25042276    -0.56600
O9          O  0.23916118  0.68082429  0.30148240    -0.46700
O10         O  0.24595291  0.58784912  0.26006327    -0.53000
C11         C  0.23201139  0.66664322  0.18459312     0.87000
O12         O  0.18482654  0.72289866  0.25046239    -0.54900
O13         O  0.19401218  0.64188180  0.31699292    -0.58200
In14       In  0.01446417  0.81825458  0.24754794     1.36900
C15         C  0.00527025  0.91766152  0.24778632     0.79500
O16         O  0.01886325  0.81745442  0.18267203    -0.59000
O17         O  0.47545272  0.79984250  0.21001711    -0.49900
C18         C  0.06667150  0.75835725  0.24525645     0.72100
O19         O  0.06976039  0.80579027  0.24681469    -0.44700
C20         C  0.49893982  0.80229113  0.32058626     0.76900
O21         O  0.03394804  0.89878142  0.24496312    -0.56600
O22         O  0.48178421  0.79041263  0.29129267    -0.46700
O23         O  0.48075214  0.89370098  0.25054859    -0.53000
C24         C  0.49153550  0.80802452  0.17894231     0.87000
O25         O  0.03699862  0.74208571  0.24448045    -0.54900
O26         O  0.02300383  0.81234058  0.31175850    -0.58200
In27       In  0.45673628  0.82252120  0.99856859     1.35300
C28         C  0.49500357  0.90162114  0.50220249     0.79500
O29         O  0.45329491  0.82559156  0.06314267    -0.59000
O30         O  0.49593119  0.79094471  0.03826862    -0.49900
C31         C  0.40450192  0.76128625  0.00334603     0.72100
O32         O  0.42510939  0.79536923  0.50617370    -0.44700
C33         C  0.49860441  0.79024561  0.43127737     0.76900
O34         O  0.44384360  0.90527117  0.00073214    -0.56600
O35         O  0.51685789  0.77698399  0.45953266    -0.46700
O36         O  0.51677880  0.86803587  0.50151084    -0.53000
C37         C  0.48095174  0.80453231  0.06877224     0.87000
O38         O  0.43411336  0.74586004  0.00133909    -0.54900
O39         O  0.47072419  0.80787341  0.44068419    -0.58200
In40       In  0.26446733  0.64125815  0.00467123     1.36900
C41         C  0.26547543  0.55072224  0.50033521     0.79500
O42         O  0.26946633  0.64326730  0.06938851    -0.59000
O43         O  0.22416760  0.66875821  0.04413832    -0.49900
C44         C  0.31617117  0.70410175  0.00617597     0.72100
O45         O  0.33504426  0.65609646  0.50327399    -0.44700
C46         C  0.26539154  0.66757031  0.42485234     0.76900
O47         O  0.28403214  0.56154396  0.00553208    -0.56600
O48         O  0.24550820  0.67874867  0.45196079    -0.46700
O49         O  0.24362991  0.58399963  0.49644522    -0.53000
C50         C  0.24073023  0.66064309  0.07473955     0.87000
O51         O  0.28637238  0.71877034  0.00540859    -0.54900
O52         O  0.29239671  0.64847343  0.43583602    -0.58200
In53       In  0.44727401  0.15332922  0.24849581     1.36900
C54         C  0.45739602  0.05394799  0.24898965     0.79500
O55         O  0.44097028  0.15540742  0.18378081    -0.59000
O56         O  0.48466732  0.18881065  0.20760647    -0.49900
C57         C  0.39268816  0.20954318  0.25027460     0.72100
O58         O  0.39132807  0.16193378  0.25100100    -0.44700
C59         C  0.47451075  0.17176558  0.31718117     0.76900
O60         O  0.42849631  0.07219772  0.25075865    -0.56600
O61         O  0.49000566  0.17935935  0.28568703    -0.46700
O62         O  0.48038671  0.08627855  0.24639665    -0.53000
C63         C  0.46844548  0.17760247  0.17750966     0.87000
O64         O  0.42183692  0.22794044  0.24923743    -0.54900
O65         O  0.44463560  0.15746862  0.31339511    -0.58200
In66       In  0.24723071  0.31161163  0.24975294     1.36900
C67         C  0.22957537  0.40785470  0.24758491     0.79500
O68         O  0.25444500  0.31205793  0.18573033    -0.59000
O69         O  0.21070886  0.27611250  0.20897485    -0.49900
C70         C  0.30187097  0.25594489  0.25061493     0.72100
O71         O  0.30315720  0.30355616  0.24779394    -0.44700
C72         C  0.22602701  0.29461791  0.32145713     0.76900
O73         O  0.25978103  0.39506190  0.25125781    -0.56600
O74         O  0.20964618  0.27988024  0.29227125    -0.46700
O75         O  0.20928335  0.37181363  0.24438434    -0.53000
C76         C  0.22726463  0.28934259  0.17913484     0.87000
O77         O  0.27278025  0.23740026  0.25298908    -0.54900
O78         O  0.25364454  0.31565312  0.31373893    -0.58200
In79       In  0.99990371  0.15512094  0.99675878     1.36900
C80         C  0.99259959  0.04276755  0.49783145     0.79500
O81         O  0.00551443  0.15167513  0.06086569    -0.59000
O82         O  0.45983668  0.19614522  0.03732157    -0.49900
C83         C  0.05647801  0.20791519  0.99730349     0.72100
O84         O  0.06731798  0.13670070  0.49268133    -0.44700
C85         C  0.48777623  0.16935789  0.42660674     0.76900
O86         O  0.00997045  0.07137622  0.99665157    -0.56600
O87         O  0.47391802  0.18272241  0.45763663    -0.46700
O88         O  0.47170147  0.07992514  0.49699708    -0.53000
C89         C  0.47523231  0.18219217  0.06756771     0.87000
O90         O  0.02805330  0.22785499  0.99649106    -0.54900
O91         O  0.01560692  0.14244698  0.43079135    -0.58200
In92       In  0.20242663  0.31177795  0.99796003     1.36900
C93         C  0.21656853  0.42567207  0.50165729     0.79500
O94         O  0.19498711  0.30931859  0.06214894    -0.59000
O95         O  0.24010299  0.28009036  0.03946818    -0.49900
C96         C  0.14807296  0.25330027  0.99608012     0.72100
O97         O  0.14479280  0.32964482  0.50330299    -0.44700
C98         C  0.22121589  0.30356296  0.43148306     0.76900
O99         O  0.18377186  0.39187235  0.99803138    -0.56600
O100        O  0.23839627  0.29521429  0.46148633    -0.46700
O101        O  0.23797993  0.39152779  0.50237833    -0.53000
C102        C  0.22296029  0.29014502  0.06911745     0.87000
O103        O  0.17719607  0.23577625  0.99647476    -0.54900
O104        O  0.19333093  0.32314080  0.43778101    -0.58200
C105        C  0.08716951  0.23929283  0.99723835    -0.14500
C106        C  0.11804115  0.22033295  0.99594186    -0.29700
H107        H  0.12605608  0.18430031  0.49375698     0.14500
H108        H  0.12140544  0.17992689  0.99512159     0.15100
C109        C  0.23552873  0.28334720  0.10884973    -0.14500
C110        C  0.21481514  0.28201779  0.13950102    -0.29700
H111        H  0.26233322  0.28325919  0.11317191     0.14500
H112        H  0.18804656  0.27928381  0.13522763     0.15100
C113        C  0.21311017  0.29078908  0.36143960    -0.14500
C114        C  0.23367458  0.29413574  0.39206405    -0.29700
H115        H  0.18630942  0.28892988  0.36573416     0.14500
H116        H  0.26049085  0.29320474  0.38778217     0.15100
C117        C  0.46182733  0.18877159  0.10694573    -0.14500
C118        C  0.48176303  0.18638675  0.13814961    -0.29700
H119        H  0.43499818  0.19113787  0.11053368     0.14500
H120        H  0.50866280  0.18697064  0.13449119     0.15100
C121        C  0.49077977  0.17565508  0.35533317    -0.14500
C122        C  0.47293863  0.17888831  0.38818792    -0.29700
H123        H  0.51767891  0.17203449  0.35662957     0.14500
H124        H  0.44626507  0.18511030  0.38680187     0.15100
C125        C  0.36293496  0.24206395  0.25023846    -0.14500
C126        C  0.33164766  0.22346687  0.25111412    -0.29700
H127        H  0.36698781  0.28250351  0.24918075     0.14500
H128        H  0.32760228  0.18304446  0.25234497     0.15100
C129        C  0.22535669  0.47973281  0.50082718    -0.14500
C130        C  0.25717220  0.49646567  0.50153904    -0.29700
H131        H  0.19705167  0.49050594  0.00042238     0.14500
H132        H  0.27749643  0.46991916  0.50323433     0.15100
C133        C  0.48215616  0.99187334  0.49844839    -0.14500
C134        C  0.50456527  0.95507204  0.49981489    -0.29700
H135        H  0.93933238  0.00172335  0.00051681     0.14500
H136        H  0.53103657  0.96429812  0.49912342     0.15100
C137        C  0.37613751  0.72546192  0.00504483    -0.14500
C138        C  0.34434938  0.74031337  0.00636392    -0.29700
H139        H  0.38168158  0.68559772  0.00445735     0.14500
H140        H  0.36208615  0.77588354  0.50329490     0.15100
C141        C  0.49542127  0.98167605  0.24912216    -0.14500
C142        C  0.46402934  0.99931884  0.24993714    -0.29700
H143        H  0.51639769  0.00781920  0.24789566     0.14500
H144        H  0.44296190  0.97338944  0.25126028     0.15100
C145        C  0.49549705  0.79902186  0.10789793    -0.14500
C146        C  0.47665590  0.80177709  0.14014947    -0.29700
H147        H  0.52237069  0.79559651  0.11025262     0.14500
H148        H  0.44967348  0.80250841  0.13784746     0.15100
C149        C  0.48801214  0.79148687  0.36081563    -0.14500
C150        C  0.50976936  0.78878925  0.39044112    -0.29700
H151        H  0.95596562  0.78770516  0.36474180     0.14500
H152        H  0.53639706  0.78895933  0.38463300     0.15100
C153        C  0.23785371  0.49942774  0.25488308    -0.14500
C154        C  0.21778765  0.46026880  0.24730435    -0.29700
H155        H  0.26408077  0.49312866  0.26084403     0.14500
H156        H  0.19154602  0.46655919  0.24151856     0.15100
C157        C  0.22677021  0.66807300  0.11374475    -0.14500
C158        C  0.24619787  0.67249004  0.14531532    -0.29700
H159        H  0.19982209  0.66672770  0.11684427     0.14500
H160        H  0.27303709  0.67659520  0.14227118     0.15100
C161        C  0.22659303  0.67154770  0.36994150    -0.14500
C162        C  0.25788458  0.67398146  0.38324898    -0.29700
H163        H  0.20597213  0.66715857  0.39029642     0.14500
H164        H  0.27860521  0.67370044  0.36285773     0.15100
C165        C  0.12677327  0.74032832  0.24645861    -0.14500
C166        C  0.09514104  0.72373411  0.24501307    -0.29700
H167        H  0.13200960  0.78047887  0.24689461     0.14500
H168        H  0.08985164  0.68359922  0.24458743     0.15100
In169      In  0.22001287  0.65091003  0.74887054     1.36900
C170        C  0.22322826  0.55118175  0.74742744     0.79500
O171        O  0.21523373  0.65565051  0.68402838    -0.59000
O172        O  0.26105515  0.67949722  0.70909419    -0.49900
C173        C  0.16870157  0.71207552  0.74842711     0.72100
O174        O  0.16549033  0.66475905  0.74686467    -0.44700
C175        C  0.24109059  0.66435731  0.82146896     0.76900
O176        O  0.19582913  0.57391386  0.74844793    -0.56600
O177        O  0.25953886  0.67299968  0.79226088    -0.46700
O178        O  0.24860952  0.57943552  0.74684108    -0.53000
C179        C  0.24449588  0.67192127  0.67843854     0.87000
O180        O  0.19842181  0.72821370  0.74986615    -0.54900
O181        O  0.21178886  0.65063491  0.81340361    -0.58200
In182      In  0.02461094  0.81350504  0.75392075     1.36900
C183        C  0.00052608  0.90579756  0.75109328     0.79500
O184        O  0.02959905  0.81424342  0.68962299    -0.59000
O185        O  0.49271723  0.77738388  0.71641702    -0.49900
C186        C  0.07914770  0.75978339  0.75153804     0.72100
O187        O  0.08020756  0.80748119  0.74875730    -0.44700
C188        C  0.51581487  0.80361636  0.82796324     0.76900
O189        O  0.03169048  0.89789744  0.74990226    -0.56600
O190        O  0.49797615  0.78501715  0.80131255    -0.46700
O191        O  0.48283335  0.87463170  0.75415125    -0.53000
C192        C  0.50670395  0.79172065  0.68509189     0.87000
O193        O  0.05039320  0.74046373  0.75549300    -0.54900
O194        O  0.03791306  0.82331452  0.81605599    -0.58200
In195      In  0.48050047  0.80431322  0.50432248     1.35300
C196        C  0.47403374  0.91923529  0.99652804     0.79500
O197        O  0.47483201  0.80569791  0.56869518    -0.59000
O198        O  0.51806294  0.77084081  0.54571781    -0.49900
C199        C  0.42600747  0.74782305  0.50460490     0.72100
O200        O  0.40143056  0.80877748  0.00335671    -0.44700
C201        C  0.47007221  0.80472051  0.92477335     0.76900
O202        O  0.46522510  0.88560950  0.50491733    -0.56600
O203        O  0.48963888  0.79151058  0.95186220    -0.46700
O204        O  0.49444344  0.88401074  0.99301208    -0.53000
C205        C  0.50202091  0.78405215  0.57555331     0.87000
O206        O  0.45489161  0.72935085  0.50331103    -0.54900
O207        O  0.44363545  0.82559117  0.93573135    -0.58200
In208      In  0.27947971  0.64885712  0.49886765     1.36900
C209        C  0.25529812  0.54157236  0.00398250     0.79500
O210        O  0.28222503  0.65045662  0.56357180    -0.59000
O211        O  0.23971240  0.68295344  0.53673595    -0.49900
C212        C  0.33471836  0.70373153  0.50203777     0.72100
O213        O  0.31965808  0.65677190  0.00635310    -0.44700
C214        C  0.24444292  0.66138740  0.93266209     0.76900
O215        O  0.29495316  0.56753428  0.50320159    -0.56600
O216        O  0.22662960  0.67059383  0.96202659    -0.46700
O217        O  0.23178934  0.57246151  0.00324811    -0.53000
C218        C  0.25457827  0.67166288  0.56803022     0.87000
O219        O  0.30612785  0.72293556  0.49945760    -0.54900
O220        O  0.27267607  0.64347681  0.94036405    -0.58200
In221      In  0.45754438  0.14762753  0.74662212     1.36900
C222        C  0.48418539  0.05659763  0.75009426     0.79500
O223        O  0.45207507  0.14600356  0.68200363    -0.59000
O224        O  0.49246300  0.18826597  0.70539334    -0.49900
C225        C  0.39578266  0.18178937  0.74681390     0.72100
O226        O  0.40198233  0.13525911  0.74732763    -0.44700
C227        C  0.47493355  0.17816758  0.81642876     0.76900
O228        O  0.45308931  0.06274267  0.74683391    -0.56600
O229        O  0.48905238  0.19511651  0.78603246    -0.46700
O230        O  0.50102936  0.09656098  0.75196508    -0.53000
C231        C  0.47796156  0.17208885  0.67545777     0.87000
O232        O  0.42120305  0.21037408  0.74586657    -0.54900
O233        O  0.45139665  0.14729136  0.81082444    -0.58200
In234      In  0.26366264  0.31783276  0.74885709     1.36900
C235        C  0.25775801  0.41773987  0.74858556     0.79500
O236        O  0.26584538  0.30865462  0.68426943    -0.59000
O237        O  0.21996557  0.29225013  0.71258425    -0.49900
C238        C  0.32238898  0.27302124  0.74596551     0.72100
O239        O  0.31876710  0.31977758  0.74215733    -0.44700
C240        C  0.24052700  0.29364929  0.81918803     0.76900
O241        O  0.28533841  0.39615322  0.75165319    -0.56600
O242        O  0.22666805  0.27861892  0.78857840    -0.46700
O243        O  0.23314729  0.38837704  0.74558048    -0.53000
C244        C  0.23560117  0.29640043  0.68090450     0.87000
O245        O  0.29558786  0.24813313  0.75081893    -0.54900
O246        O  0.26694920  0.31876098  0.81382262    -0.58200
In247      In  0.01143284  0.13949049  0.49553208     1.36900
C248        C  0.97926120  0.05951352  0.99762178     0.79500
O249        O  0.01699285  0.14096866  0.55998197    -0.59000
O250        O  0.47204236  0.17836657  0.53484891    -0.49900
C251        C  0.07106757  0.18380034  0.49518489     0.72100
O252        O  0.05616836  0.16019086  0.99808472    -0.44700
C253        C  0.47743807  0.18265118  0.92582362     0.76900
O254        O  0.02289426  0.05629397  0.49811318    -0.56600
O255        O  0.46082964  0.19567059  0.95518453    -0.46700
O256        O  0.45748299  0.09982573  0.99974766    -0.53000
C257        C  0.48692349  0.16681741  0.56586615     0.87000
O258        O  0.04426533  0.20816451  0.49700574    -0.54900
O259        O  0.00841535  0.15492326  0.93284795    -0.58200
In260      In  0.20060492  0.32769958  0.50224074     1.36900
C261        C  0.21262027  0.41130379  0.99976235     0.79500
O262        O  0.19702223  0.32533374  0.56727250    -0.59000
O263        O  0.23655457  0.28598365  0.54050205    -0.49900
C264        C  0.14135820  0.28239502  0.50228430     0.72100
O265        O  0.14680567  0.30083589  0.99611163    -0.44700
C266        C  0.22842471  0.29459629  0.92870538     0.76900
O267        O  0.18681272  0.40988466  0.50146556    -0.56600
O268        O  0.24347771  0.28375939  0.95982806    -0.46700
O269        O  0.23585087  0.37998793  0.00035230    -0.53000
C270        C  0.22275710  0.29913836  0.57167138     0.87000
O271        O  0.16831641  0.25828453  0.50199925    -0.54900
O272        O  0.19965577  0.31231779  0.93309452    -0.58200
C273        C  0.10433619  0.20803391  0.49637931    -0.14500
C274        C  0.10821361  0.25785638  0.50107765    -0.29700
H275        H  0.08406263  0.27979012  0.99799410     0.14500
H276        H  0.08646294  0.28157118  0.50352384     0.15100
C277        C  0.23713765  0.28801993  0.61006563    -0.14500
C278        C  0.21922760  0.29161534  0.64287119    -0.29700
H279        H  0.26372915  0.28109126  0.61154136     0.14500
H280        H  0.19240992  0.29620919  0.64148429     0.15100
C281        C  0.22577913  0.28561506  0.85793670    -0.14500
C282        C  0.24408550  0.29001422  0.89029829    -0.29700
H283        H  0.19903285  0.27932068  0.85996118     0.14500
H284        H  0.27104569  0.29330441  0.88839339     0.15100
C285        C  0.47244025  0.17500996  0.60449743    -0.14500
C286        C  0.49169125  0.17938690  0.63610552    -0.29700
H287        H  0.44548888  0.17337422  0.60740137     0.14500
H288        H  0.51850247  0.18406245  0.63301219     0.15100
C289        C  0.48646499  0.19019135  0.85567131    -0.14500
C290        C  0.46532082  0.18914460  0.88589341    -0.29700
H291        H  0.51307913  0.19478649  0.86034056     0.14500
H292        H  0.43858495  0.18758717  0.88102675     0.15100
C293        C  0.36143954  0.20125718  0.74743356    -0.14500
C294        C  0.35584291  0.25084590  0.74502002    -0.29700
H295        H  0.34070115  0.17478247  0.74984912     0.14500
H296        H  0.37681244  0.27687706  0.74221701     0.15100
C297        C  0.21862421  0.46623230  0.00103886    -0.14500
C298        C  0.24957444  0.48652213  0.00290531    -0.29700
H299        H  0.20508313  0.50639959  0.49947144     0.14500
H300        H  0.27117009  0.46231597  0.00349785     0.15100
C301        C  0.46520257  0.01115507  0.99874043    -0.14500
C302        C  0.48576788  0.97211827  0.99590820    -0.29700
H303        H  0.95436440  0.98235841  0.49762877     0.14500
H304        H  0.51242382  0.97898638  0.99303860     0.15100
C305        C  0.39578974  0.71575461  0.50400006    -0.14500
C306        C  0.36511396  0.73533036  0.50333837    -0.29700
H307        H  0.39889340  0.67524082  0.50359518     0.14500
H308        H  0.33872061  0.78015231  0.00669410     0.15100
C309        C  0.48312834  0.96401334  0.75065581    -0.14500
C310        C  0.50044286  0.00725744  0.75127987    -0.29700
H311        H  0.45605432  0.96455240  0.74988269     0.14500
H312        H  0.52749813  0.00665455  0.75262703     0.15100
C313        C  0.51501298  0.77867336  0.61535082    -0.14500
C314        C  0.49450843  0.77787709  0.64632679    -0.29700
H315        H  0.54182099  0.78117704  0.61941173     0.14500
H316        H  0.46783691  0.77243354  0.64248597     0.15100
C317        C  0.50872828  0.79681548  0.86970697    -0.14500
C318        C  0.47739809  0.79835438  0.88314946    -0.29700
H319        H  0.02699254  0.79815066  0.89045050     0.14500
H320        H  0.45686461  0.80157797  0.86275352     0.15100
C321        C  0.22539599  0.49596789  0.74708933    -0.14500
C322        C  0.25496085  0.47282569  0.74857396    -0.29700
H323        H  0.20239936  0.47407400  0.74601569     0.14500
H324        H  0.27787989  0.49484426  0.75012889     0.15100
C325        C  0.24005090  0.67950718  0.60693251    -0.14500
C326        C  0.25901642  0.67797755  0.63917881    -0.29700
H327        H  0.21317818  0.68268513  0.60932929     0.14500
H328        H  0.28598532  0.67723810  0.63659993     0.15100
C329        C  0.25336043  0.66733817  0.86180602    -0.14500
C330        C  0.23247852  0.66838752  0.89243745    -0.29700
H331        H  0.28011431  0.66619500  0.86646339     0.14500
H332        H  0.20583324  0.67186776  0.88782280     0.15100
C333        C  0.13996398  0.74606318  0.74884647    -0.14500
C334        C  0.10872659  0.72771230  0.75028428    -0.29700
H335        H  0.14451988  0.78641874  0.74862297     0.14500
H336        H  0.10446978  0.68728319  0.75113502     0.15100
In337      In  0.69974239  0.63522784  0.25554591     1.36900
C338        C  0.72271650  0.54132136  0.25719371     0.79500
O339        O  0.69799554  0.63214567  0.19077748    -0.59000
O340        O  0.73640902  0.67661535  0.21640293    -0.49900
C341        C  0.64136250  0.67993889  0.24804313     0.72100
O342        O  0.64391218  0.63255297  0.25026678    -0.44700
C343        C  0.71122381  0.65829956  0.32950138     0.76900
O344        O  0.69192945  0.55068909  0.25409658    -0.56600
O345        O  0.72973336  0.67454972  0.30209045    -0.46700
O346        O  0.74118144  0.57968313  0.25995259    -0.53000
C347        C  0.72332447  0.65999506  0.18556107     0.87000
O348        O  0.66868433  0.70403093  0.24943745    -0.54900
O349        O  0.68664300  0.63205433  0.31879361    -0.58200
In350      In  0.51653967  0.82924977  0.24848949     1.36900
C351        C  0.50294937  0.92743810  0.24929519     0.79500
O352        O  0.52071255  0.82478038  0.18365488    -0.59000
O353        O  0.97371305  0.79043469  0.20847250    -0.49900
C354        C  0.57405462  0.78137246  0.24437395     0.72100
O355        O  0.57223733  0.82881963  0.24385140    -0.44700
C356        C  0.99445142  0.79432893  0.31920111     0.76900
O357        O  0.53233488  0.91111430  0.24792876    -0.56600
O358        O  0.97621092  0.78738484  0.28980928    -0.46700
O359        O  0.98197005  0.88586750  0.25109770    -0.53000
C360        C  0.98985159  0.80002625  0.17764862     0.87000
O361        O  0.54631689  0.75837478  0.24658209    -0.54900
O362        O  0.52535245  0.82650580  0.31284271    -0.58200
In363      In  0.95447817  0.81870146  0.99850734     1.35300
C364        C  0.99140774  0.89857203  0.50275840     0.79500
O365        O  0.95184272  0.82017712  0.06292922    -0.59000
O366        O  0.99364760  0.78457909  0.03696589    -0.49900
C367        C  0.90071853  0.76003955  0.00287686     0.72100
O368        O  0.91945716  0.79394799  0.50533941    -0.44700
C369        C  0.99265660  0.78355826  0.42980921     0.76900
O370        O  0.94304680  0.90208200  0.00158030    -0.56600
O371        O  0.00849837  0.76534062  0.45842266    -0.46700
O372        O  0.01246906  0.86393625  0.50309908    -0.53000
C373        C  0.97918717  0.79796691  0.06783370     0.87000
O374        O  0.93000735  0.74325464  0.00145986    -0.54900
O375        O  0.96752128  0.80903088  0.43871878    -0.58200
In376      In  0.75883666  0.64373575  0.00462439     1.36900
C377        C  0.76246897  0.54773015  0.50041772     0.79500
O378        O  0.76287334  0.64457036  0.06978024    -0.59000
O379        O  0.71789414  0.67026331  0.04425560    -0.49900
C380        C  0.81132305  0.70579725  0.00532017     0.72100
O381        O  0.82887376  0.65501737  0.50353431    -0.44700
C382        C  0.75736608  0.66744219  0.42602641     0.76900
O383        O  0.77869445  0.56418884  0.00776662    -0.56600
O384        O  0.73739791  0.67544922  0.45374091    -0.46700
O385        O  0.73949676  0.57938052  0.49749814    -0.53000
C386        C  0.73386676  0.66088262  0.07509275     0.87000
O387        O  0.78164597  0.72106520  0.00531756    -0.54900
O388        O  0.78533978  0.65112306  0.43633573    -0.58200
In389      In  0.95144036  0.14540136  0.24794133     1.36900
C390        C  0.96194812  0.04610370  0.24785679     0.79500
O391        O  0.94474796  0.15027444  0.18357678    -0.59000
O392        O  0.99053714  0.17663386  0.20741382    -0.49900
C393        C  0.89707830  0.20197921  0.24872515     0.72100
O394        O  0.89560501  0.15436874  0.24944111    -0.44700
C395        C  0.97658187  0.16593697  0.31700006     0.76900
O396        O  0.93301610  0.06435345  0.24860224    -0.56600
O397        O  0.99177409  0.17685978  0.28584225    -0.46700
O398        O  0.98503324  0.07842678  0.24686833    -0.53000
C399        C  0.97337075  0.16877989  0.17737474     0.87000
O400        O  0.92625991  0.22025564  0.24801200    -0.54900
O401        O  0.94797963  0.14663651  0.31273765    -0.58200
In402      In  0.75093850  0.30190294  0.25175329     1.36900
C403        C  0.73087685  0.39708725  0.25367055     0.79500
O404        O  0.75556071  0.30776749  0.18729875    -0.59000
O405        O  0.71358033  0.26773096  0.21075604    -0.49900
C406        C  0.80618330  0.24765743  0.24952127     0.72100
O407        O  0.80706029  0.29536806  0.24985929    -0.44700
C408        C  0.73273073  0.28110765  0.32407078     0.76900
O409        O  0.76158357  0.38623438  0.25208771    -0.56600
O410        O  0.71662398  0.26448613  0.29525975    -0.46700
O411        O  0.71136780  0.35972007  0.25401559    -0.53000
C412        C  0.72869589  0.28416756  0.18075874     0.87000
O413        O  0.77725916  0.22839857  0.25016955    -0.54900
O414        O  0.75889548  0.30579488  0.31567175    -0.58200
In415      In  0.49662615  0.16035249  0.99730398     1.36900
C416        C  0.49253511  0.04511923  0.49706266     0.79500
O417        O  0.50205213  0.15915027  0.06157352    -0.59000
O418        O  0.96430457  0.19223313  0.03764625    -0.49900
C419        C  0.55335212  0.21268538  0.99861944     0.72100
O420        O  0.56578432  0.13598215  0.49798045    -0.44700
C421        C  0.98841277  0.16502251  0.42616986     0.76900
O422        O  0.50787679  0.07688559  0.99631984    -0.56600
O423        O  0.97377087  0.17681590  0.45712563    -0.46700
O424        O  0.97240963  0.07840157  0.49618374    -0.53000
C425        C  0.97943256  0.17623749  0.06750604     0.87000
O426        O  0.52504045  0.23294537  0.99828683    -0.54900
O427        O  0.51403112  0.14443479  0.43125119    -0.58200
In428      In  0.70113347  0.31099366  0.99828348     1.36900
C429        C  0.71788136  0.41895971  0.50165201     0.79500
O430        O  0.69356923  0.30811852  0.06316105    -0.59000
O431        O  0.73899666  0.28068564  0.04029995    -0.49900
C432        C  0.64545508  0.25518834  0.99783297     0.72100
O433        O  0.64877283  0.32409567  0.50205965    -0.44700
C434        C  0.72719009  0.29352484  0.43372744     0.76900
O435        O  0.68223140  0.39070721  0.99044012    -0.56600
O436        O  0.74378904  0.28695943  0.46438068    -0.46700
O437        O  0.74022790  0.38623064  0.50205819    -0.53000
C438        C  0.72185593  0.28991133  0.07010209     0.87000
O439        O  0.67418535  0.23633762  0.99731644    -0.54900
O440        O  0.69884148  0.31208516  0.43882836    -0.58200
C441        C  0.58426909  0.24349353  0.99904979    -0.14500
C442        C  0.61485353  0.22354065  0.99787482    -0.29700
H443        H  0.62577298  0.17922861  0.50086834     0.14500
H444        H  0.61759634  0.18301788  0.99686552     0.15100
C445        C  0.73503179  0.28328363  0.10977322    -0.14500
C446        C  0.71515739  0.27902083  0.14114832    -0.29700
H447        H  0.76191206  0.28464294  0.11340918     0.14500
H448        H  0.68839995  0.27463030  0.13766777     0.15100
C449        C  0.72050343  0.27586632  0.36430141    -0.14500
C450        C  0.74065438  0.28362382  0.39480913    -0.29700
H451        H  0.69393015  0.27008621  0.36880493     0.14500
H452        H  0.76742965  0.28667142  0.39063179     0.15100
C453        C  0.96655804  0.18241805  0.10714537    -0.14500
C454        C  0.98664755  0.17727727  0.13803115    -0.29700
H455        H  0.93992249  0.18703420  0.11109047     0.14500
H456        H  0.01347215  0.17553842  0.13405365     0.15100
C457        C  0.99205277  0.17184638  0.35529832    -0.14500
C458        C  0.97360450  0.17351133  0.38772600    -0.29700
H459        H  0.01906366  0.17096983  0.35707940     0.14500
H460        H  0.94671988  0.17714940  0.38589319     0.15100
C461        C  0.86736551  0.23454034  0.24871047    -0.14500
C462        C  0.83615787  0.21569574  0.24870604    -0.29700
H463        H  0.87133764  0.27498914  0.24886315     0.14500
H464        H  0.83228670  0.17522724  0.24851491     0.15100
C465        C  0.72490778  0.47359477  0.50042799    -0.14500
C466        C  0.75608741  0.49285652  0.50121270    -0.29700
H467        H  0.69391126  0.49010563  0.99057474     0.14500
H468        H  0.77731535  0.46796521  0.50288872     0.15100
C469        C  0.98099984  0.98990769  0.49925483    -0.14500
C470        C  0.00228274  0.95170930  0.50230504    -0.29700
H471        H  0.43852235  0.00446452  0.00138615     0.14500
H472        H  0.02890883  0.95947674  0.50380605     0.15100
C473        C  0.87163289  0.72541137  0.00438988    -0.14500
C474        C  0.84001667  0.74130034  0.00495838    -0.29700
H475        H  0.87654531  0.68533108  0.00451679     0.14500
H476        H  0.85577311  0.77476418  0.50749806     0.15100
C477        C  0.99930589  0.97247826  0.24706947    -0.14500
C478        C  0.96823801  0.99140217  0.24833764    -0.29700
H479        H  0.02076516  0.99763520  0.24525728     0.14500
H480        H  0.94680125  0.96616281  0.24987776     0.15100
C481        C  0.99388891  0.79107859  0.10667132    -0.14500
C482        C  0.97509073  0.79432498  0.13886427    -0.29700
H483        H  0.02068746  0.78672476  0.10892132     0.14500
H484        H  0.94812574  0.79585109  0.13654755     0.15100
C485        C  0.98256290  0.78533033  0.35929092    -0.14500
C486        C  0.00374686  0.77867394  0.38912767    -0.29700
H487        H  0.46142034  0.78834433  0.36644117     0.14500
H488        H  0.03011628  0.77334528  0.38359659     0.15100
C489        C  0.73682593  0.49006145  0.25710050    -0.14500
C490        C  0.71755451  0.44871942  0.25481888    -0.29700
H491        H  0.76374186  0.48640337  0.25857067     0.14500
H492        H  0.69063893  0.45262786  0.25378906     0.15100
C493        C  0.71892015  0.66500775  0.11418522    -0.14500
C494        C  0.73757397  0.66947448  0.14646875    -0.29700
H495        H  0.69203480  0.66076931  0.11667596     0.14500
H496        H  0.76420126  0.67673208  0.14406547     0.15100
C497        C  0.71797425  0.66657436  0.37119272    -0.14500
C498        C  0.74904084  0.67389294  0.38444963    -0.29700
H499        H  0.69786906  0.65908521  0.39175210     0.14500
H500        H  0.76957831  0.67681140  0.36385792     0.15100
C501        C  0.60879532  0.70506956  0.24498854    -0.14500
C502        C  0.60639269  0.75546828  0.24338508    -0.29700
H503        H  0.58639410  0.68177403  0.24557808     0.14500
H504        H  0.62883947  0.77865957  0.24283310     0.15100
In505      In  0.71463511  0.64404987  0.74942498     1.36900
C506        C  0.72334894  0.54489346  0.74912127     0.79500
O507        O  0.71040533  0.64722801  0.68456654    -0.59000
O508        O  0.75398724  0.67859049  0.70988123    -0.49900
C509        C  0.65730359  0.69155550  0.74717874     0.72100
O510        O  0.65938729  0.64429590  0.74831906    -0.44700
C511        C  0.73528827  0.66548884  0.82124334     0.76900
O512        O  0.69493495  0.56444073  0.74856872    -0.56600
O513        O  0.75265879  0.67571701  0.79146152    -0.46700
O514        O  0.74722750  0.57595220  0.74987942    -0.53000
C515        C  0.73835018  0.66814207  0.67914244     0.87000
O516        O  0.68486457  0.71517584  0.74706954    -0.54900
O517        O  0.70717146  0.64634177  0.81407831    -0.58200
In518      In  0.52696732  0.82452729  0.75351895     1.36900
C519        C  0.49956238  0.91479535  0.75143559     0.79500
O520        O  0.53096610  0.82169135  0.68918803    -0.59000
O521        O  0.98847813  0.77354367  0.71494841    -0.49900
C522        C  0.58737060  0.78769620  0.74845290     0.72100
O523        O  0.58229545  0.83458882  0.74647094    -0.44700
C524        C  0.01311979  0.79825829  0.82852469     0.76900
O525        O  0.53080428  0.90909214  0.74945924    -0.56600
O526        O  0.99436989  0.77967830  0.80261600    -0.46700
O527        O  0.98247854  0.86682584  0.75366516    -0.53000
C528        C  0.00355737  0.78805390  0.68428039     0.87000
O529        O  0.56156019  0.76050100  0.75323532    -0.54900
O530        O  0.53983183  0.83083316  0.81634279    -0.58200
In531      In  0.97509557  0.80154565  0.50269703     1.35300
C532        C  0.97337948  0.91497258  0.99690069     0.79500
O533        O  0.96839556  0.79894887  0.56708231    -0.59000
O534        O  0.01466730  0.77426660  0.54401516    -0.49900
C535        C  0.91987940  0.74629914  0.50498231     0.72100
O536        O  0.89869477  0.80767153  0.00256501    -0.44700
C537        C  0.96775984  0.79960815  0.92518868     0.76900
O538        O  0.96124947  0.88382003  0.50256612    -0.56600
O539        O  0.98694003  0.78579719  0.95244182    -0.46700
O540        O  0.99309959  0.87899837  0.99284972    -0.53000
C541        C  0.99739616  0.78335095  0.57389924     0.87000
O542        O  0.94857929  0.72722121  0.50373565    -0.54900
O543        O  0.94181189  0.82207482  0.93571178    -0.58200
In544      In  0.77329181  0.64702985  0.49978159     1.36900
C545        C  0.75037120  0.54353939  0.00381005     0.79500
O546        O  0.77561192  0.64697207  0.56456062    -0.59000
O547        O  0.73321572  0.67992072  0.53783389    -0.49900
C548        C  0.82835350  0.70257420  0.50458847     0.72100
O549        O  0.81424566  0.65840273  0.00534968    -0.44700
C550        C  0.73900072  0.66436747  0.93236568     0.76900
O551        O  0.79135772  0.56676944  0.50278799    -0.56600
O552        O  0.72123480  0.67363253  0.96177305    -0.46700
O553        O  0.72677144  0.57400626  0.00028087    -0.53000
C554        C  0.74797885  0.66815534  0.56906534     0.87000
O555        O  0.79961978  0.72150410  0.50340686    -0.54900
O556        O  0.76712075  0.64605912  0.94008528    -0.58200
In557      In  0.96311447  0.14158383  0.74506430     1.36900
C558        C  0.98802287  0.04888672  0.74857150     0.79500
O559        O  0.95893466  0.13870625  0.68064713    -0.59000
O560        O  0.99741713  0.18455973  0.70461885    -0.49900
C561        C  0.90194306  0.17823911  0.74358428     0.72100
O562        O  0.90740281  0.13154488  0.74606526    -0.44700
C563        C  0.98011744  0.17235696  0.81513634     0.76900
O564        O  0.95704148  0.05652195  0.74585492    -0.56600
O565        O  0.99671223  0.18488570  0.78524350    -0.46700
O566        O  0.00560273  0.08818097  0.74986291    -0.53000
C567        C  0.98375580  0.16724599  0.67452655     0.87000
O568        O  0.92779907  0.20576676  0.74108768    -0.54900
O569        O  0.95448517  0.14592995  0.80879335    -0.58200
In570      In  0.77039701  0.31502491  0.75068361     1.36900
C571        C  0.76272220  0.41463711  0.75052714     0.79500
O572        O  0.77278291  0.30477522  0.68575627    -0.59000
O573        O  0.72653025  0.29155228  0.71405140    -0.49900
C574        C  0.82942697  0.27115164  0.74559183     0.72100
O575        O  0.82567403  0.31806817  0.74323226    -0.44700
C576        C  0.74630259  0.28883881  0.82078439     0.76900
O577        O  0.79064816  0.39440062  0.75507660    -0.56600
O578        O  0.73372113  0.27332925  0.78958539    -0.46700
O579        O  0.73896055  0.38411129  0.74601280    -0.53000
C580        C  0.74226638  0.29414235  0.68237760     0.87000
O581        O  0.80276674  0.24603219  0.75075052    -0.54900
O582        O  0.77236573  0.31513974  0.81630023    -0.58200
In583      In  0.51004373  0.14215949  0.49635173     1.36900
C584        C  0.47743133  0.06384122  0.99823108     0.79500
O585        O  0.51419057  0.14467542  0.56122575    -0.59000
O586        O  0.97557124  0.17842943  0.53473640    -0.49900
C587        C  0.57087433  0.18289428  0.49838641     0.72100
O588        O  0.55279897  0.16500084  0.99843776    -0.44700
C589        C  0.98122643  0.17599953  0.92485773     0.76900
O590        O  0.52254880  0.05975369  0.49632092    -0.56600
O591        O  0.96392150  0.18836416  0.95388808    -0.46700
O592        O  0.95982998  0.09622846  0.99804312    -0.53000
C593        C  0.99065297  0.16533822  0.56528588     0.87000
O594        O  0.54478163  0.20908858  0.49716615    -0.54900
O595        O  0.50423980  0.16023311  0.93325472    -0.58200
In596      In  0.70449442  0.31984252  0.50331975     1.36900
C597        C  0.71007961  0.41134319  0.99719346     0.79500
O598        O  0.70119327  0.31691904  0.56857364    -0.59000
O599        O  0.74153184  0.27997555  0.54173181    -0.49900
C600        C  0.64416597  0.27709315  0.50274427     0.72100
O601        O  0.64517581  0.30272871  0.99833846    -0.44700
C602        C  0.72954579  0.29012517  0.93015976     0.76900
O603        O  0.68867319  0.40118882  0.50230376    -0.56600
O604        O  0.74346576  0.28107809  0.96228522    -0.46700
O605        O  0.73296580  0.38084035  0.00461667    -0.53000
C606        C  0.72768858  0.29253751  0.57298416     0.87000
O607        O  0.67055317  0.25159374  0.50432276    -0.54900
O608        O  0.70047842  0.30717308  0.93292187    -0.58200
C609        C  0.60485318  0.20476808  0.50032253    -0.14500
C610        C  0.61033316  0.25465195  0.50138286    -0.29700
H611        H  0.58164729  0.28405441  0.99997660     0.14500
H612        H  0.58935307  0.28010621  0.50071982     0.15100
C613        C  0.74276086  0.28289941  0.61139395    -0.14500
C614        C  0.72558143  0.28923361  0.64446169    -0.29700
H615        H  0.76920666  0.27478550  0.61251263     0.14500
H616        H  0.69887410  0.29522537  0.64339627     0.15100
C617        C  0.73018180  0.28031953  0.85898517    -0.14500
C618        C  0.74690754  0.28509279  0.89253758    -0.29700
H619        H  0.70343728  0.27354850  0.85951876     0.14500
H620        H  0.77387815  0.28898971  0.89217469     0.15100
C621        C  0.97715599  0.17399762  0.60419920    -0.14500
C622        C  0.99707983  0.17629365  0.63531433    -0.29700
H623        H  0.95024067  0.17351242  0.60778603     0.14500
H624        H  0.02390989  0.17989985  0.63174486     0.15100
C625        C  0.99104525  0.18401682  0.85474247    -0.14500
C626        C  0.96955178  0.18194752  0.88466407    -0.29700
H627        H  0.01755000  0.18918939  0.85991963     0.14500
H628        H  0.94290075  0.17963145  0.87939292     0.15100
C629        C  0.86791847  0.19891699  0.74441729    -0.14500
C630        C  0.86276921  0.24870408  0.74269810    -0.29700
H631        H  0.84693491  0.17298052  0.74747107     0.14500
H632        H  0.88388354  0.27438127  0.73960179     0.15100
C633        C  0.71529942  0.46664140  0.99663695    -0.14500
C634        C  0.74531312  0.48820927  0.00356998    -0.29700
H635        H  0.70373620  0.49863430  0.49912939     0.14500
H636        H  0.76677008  0.46474228  0.00925378     0.15100
C637        C  0.96613882  0.00731276  0.99836884    -0.14500
C638        C  0.98602945  0.96741059  0.99623674    -0.29700
H639        H  0.45566128  0.98287889  0.49900516     0.14500
H640        H  0.01280747  0.97319034  0.99364585     0.15100
C641        C  0.88942379  0.71461730  0.50550420    -0.14500
C642        C  0.85875292  0.73424902  0.50643331    -0.29700
H643        H  0.89237665  0.67411843  0.50424165     0.14500
H644        H  0.83495709  0.78133475  0.00468799     0.15100
C645        C  0.98531524  0.95608691  0.74961163    -0.14500
C646        C  0.00338898  0.99867991  0.74990511    -0.29700
H647        H  0.95828271  0.95794110  0.74871352     0.14500
H648        H  0.03041399  0.99687758  0.75126894     0.15100
C649        C  0.01082206  0.77985246  0.61367072    -0.14500
C650        C  0.99074331  0.77795899  0.64501839    -0.29700
H651        H  0.03765370  0.78275481  0.61732217     0.14500
H652        H  0.96407989  0.77221206  0.64154920     0.15100
C653        C  0.00633981  0.79336743  0.87039221    -0.14500
C654        C  0.97503792  0.79206292  0.88384859    -0.29700
H655        H  0.52946621  0.79877191  0.88990828     0.14500
H656        H  0.95430498  0.79250158  0.86354841     0.15100
C657        C  0.72797415  0.49010999  0.74884162    -0.14500
C658        C  0.75834981  0.46949390  0.75059810    -0.29700
H659        H  0.70586733  0.46625327  0.74733149     0.14500
H660        H  0.78046646  0.49328135  0.75258873     0.15100
C661        C  0.73338119  0.67543345  0.60791353    -0.14500
C662        C  0.75254714  0.67614266  0.63996540    -0.29700
H663        H  0.70641066  0.67604394  0.61049438     0.14500
H664        H  0.77950614  0.67825309  0.63722361     0.15100
C665        C  0.74766245  0.67202357  0.86132317    -0.14500
C666        C  0.72688844  0.67112180  0.89212093    -0.29700
H667        H  0.77442383  0.67385449  0.86577022     0.14500
H668        H  0.70011494  0.67182959  0.88758541     0.15100
C669        C  0.62470394  0.71597981  0.74677019    -0.14500
C670        C  0.62091139  0.76602571  0.74588681    -0.29700
H671        H  0.60289760  0.69138782  0.74824662     0.14500
H672        H  0.64246739  0.79103956  0.74413612     0.15100
loop_ 
_geom_bond_atom_site_label_1 
_geom_bond_atom_site_label_2 
_geom_bond_distance 
_geom_bond_site_symmetry_2 
_ccdc_geom_bond_type 
In1           O3   2.210       .  S
In1           O4   2.247       .  S
In1          O12   2.221       .  S
In1           O6   2.246       .  S
In1           O8   2.263       .  S
In1           O9   2.241       .  S
In1          O10   2.224       .  S
In1          O13   2.223       .  S
C2            O8   1.270       .  A
C2           O10   1.259       .  A
C2          C153   1.478       .  S
O3           C11   1.263       .  A
O4           C11   1.268       .  A
C5           O12   1.264       .  A
C5            O6   1.271       .  A
C5          C165   1.475       .  S
C7            O9   1.269       .  A
C7           O13   1.262       .  A
C7          C161   1.471       .  S
C11         C158   1.470       .  S
In14         O16   2.238       .  S
In14         O25   2.232       .  S
In14         O19   2.247       .  S
In14         O21   2.272       .  S
In14         O26   2.239       .  S
In14        O353   2.244   1_455  S
In14        O358   2.252   1_455  S
In14        O359   2.238   1_455  S
C15          O21   1.265       .  A
C15         O359   1.257   1_455  A
C15         C477   1.480   1_455  S
O16         C360   1.261   1_455  A
O17        In350   2.255       .  S
O17          C24   1.262       .  A
C18          O25   1.263       .  A
C18          O19   1.268       .  A
C18         C166   1.476       .  S
C20          O22   1.263       .  A
C20         O362   1.260       .  A
C20         C149   1.474       .  S
O22        In350   2.258       .  S
O23        In350   2.251       .  S
O23         C351   1.257       .  A
C24         O352   1.259       .  A
C24         C146   1.473       .  S
O26         C356   1.261   1_455  A
In27         O29   2.227   1_556  S
In27         O30   2.248   1_556  S
In27         O38   2.223   1_556  S
In27         O34   2.269   1_556  S
In27        O200   2.250   1_556  S
In27        O203   2.248       .  S
In27        O204   2.221       .  S
In27        O207   2.226       .  S
C28          O36   1.257       .  A
C28         O202   1.267       .  A
C28         C134   1.469       .  S
O29          C37   1.263       .  A
O30          C37   1.267       .  A
C31          O38   1.264       .  A
C31         O200   1.271       .  A
C31         C137   1.476       .  S
O32        In195   2.233       .  S
O32         C199   1.268       .  A
C33          O35   1.267       .  A
C33          O39   1.261       .  A
C33         C150   1.474       .  S
O34         C196   1.270   1_554  A
O35        In195   2.253       .  S
O36        In195   2.222       .  S
C37         C145   1.474       .  S
O39        In195   2.225       .  S
In40         O42   2.236       .  S
In40         O43   2.244       .  S
In40         O51   2.232       .  S
In40         O47   2.269       .  S
In40        O213   2.249       .  S
In40        O216   2.252   1_554  S
In40        O217   2.240       .  S
In40        O220   2.235   1_554  S
C41          O49   1.259       .  A
C41         O215   1.264       .  A
C41         C130   1.477       .  S
O42          C50   1.261       .  A
O43          C50   1.263       .  A
C44          O51   1.262       .  A
C44         O213   1.268       .  A
C44         C138   1.477       .  S
O45        In208   2.241       .  S
O45         C212   1.267       .  A
C46          O48   1.266       .  A
C46          O52   1.259       .  A
C46         C162   1.471       .  S
O47         C209   1.265       .  A
O48        In208   2.257       .  S
O49        In208   2.236       .  S
C50         C157   1.469       .  S
O52        In208   2.228       .  S
In53         O55   2.240       .  S
In53         O56   2.246       .  S
In53         O64   2.243       .  S
In53         O58   2.261       .  S
In53         O60   2.278       .  S
In53         O61   2.249       .  S
In53         O62   2.238       .  S
In53         O65   2.238       .  S
C54          O60   1.264       .  A
C54          O62   1.256       .  A
C54         C142   1.480   1_545  S
O55          C63   1.261       .  A
O56          C63   1.261       .  A
C57          O64   1.263       .  A
C57          O58   1.267       .  A
C57         C125   1.482       .  S
C59          O61   1.261       .  A
C59          O65   1.261       .  A
C59         C121   1.471       .  S
C63         C118   1.469       .  S
In66         O68   2.220       .  S
In66         O69   2.240       .  S
In66         O77   2.237       .  S
In66         O71   2.258       .  S
In66         O73   2.272       .  S
In66         O74   2.248       .  S
In66         O75   2.229       .  S
In66         O78   2.220       .  S
C67          O73   1.269       .  A
C67          O75   1.257       .  A
C67         C154   1.477       .  S
O68          C76   1.263       .  A
O69          C76   1.265       .  A
C70          O77   1.264       .  A
C70          O71   1.269       .  A
C70         C126   1.483       .  S
C72          O74   1.265       .  A
C72          O78   1.262       .  A
C72         C113   1.470       .  S
C76         C110   1.467       .  S
In79         O81   2.217   1_656  S
In79         O90   2.229   1_655  S
In79         O86   2.269   1_655  S
In79        O418   2.248   1_556  S
In79        O252   2.261   1_655  S
In79        O591   2.246       .  S
In79        O592   2.232       .  S
In79        O259   2.224   1_655  S
C80         O254   1.264   1_655  A
C80         O424   1.255       .  A
C80         C469   1.476   1_545  S
O81         C425   1.262   1_455  A
O82        In415   2.245   1_554  S
O82          C89   1.265       .  A
C83          O90   1.264       .  A
C83         O252   1.269       .  A
C83         C105   1.480       .  S
O84        In247   2.246       .  S
O84         C251   1.264       .  A
C85          O87   1.260       .  A
C85         O427   1.261       .  A
C85         C122   1.470       .  S
O86         C248   1.269   1_455  A
O87        In583   2.246       .  S
O88        In583   2.247       .  S
O88         C416   1.255       .  A
C89         O417   1.263       .  A
C89         C117   1.469       .  S
O91        In247   2.233       .  S
O91         C421   1.261   1_455  A
In92         O94   2.227   1_556  S
In92         O95   2.245   1_556  S
In92        O103   2.252       .  S
In92         O99   2.266       .  S
In92        O265   2.248       .  S
In92        O268   2.244       .  S
In92        O269   2.246   1_556  S
In92        O272   2.234       .  S
C93         O101   1.258       .  A
C93         O267   1.261       .  A
C93         C129   1.476       .  S
O94         C102   1.260       .  A
O95         C102   1.262       .  A
C96         O103   1.263       .  A
C96         O265   1.266       .  A
C96         C106   1.482       .  S
O97        In260   2.241       .  S
O97         C264   1.264       .  A
C98         O100   1.261       .  A
C98         O104   1.259       .  A
C98         C114   1.470       .  S
O99         C261   1.264       .  A
O100       In260   2.250       .  S
O101       In260   2.252       .  S
C102        C109   1.467       .  S
O104       In260   2.241       .  S
C105        C106   1.344       .  D
C105        H275   1.087       .  S
C106        H108   1.086       .  S
H107        C273   1.086       .  S
C109        C110   1.341       .  D
C109        H111   1.086       .  S
C110        H112   1.086       .  S
C113        C114   1.342       .  D
C113        H115   1.086       .  S
C114        H116   1.086       .  S
C117        C118   1.341       .  D
C117        H119   1.086       .  S
C118        H120   1.086       .  S
C121        C122   1.341       .  D
C121        H123   1.086       .  S
C122        H124   1.086       .  S
C125        C126   1.344       .  D
C125        H127   1.086       .  S
C126        H128   1.086       .  S
C129        C130   1.347       .  D
C129        H299   1.086       .  S
C130        H132   1.086       .  S
H131        C297   1.086       .  S
C133        C416   1.472   1_565  S
C133        C134   1.337       .  D
C133        H639   1.087       .  S
C134        H136   1.087       .  S
H135        C637   1.086   1_554  S
C137        C138   1.341       .  D
C137        H139   1.086       .  S
C138        H308   1.086       .  S
H140        C306   1.087       .  S
C141        C351   1.477       .  S
C141        C142   1.350       .  D
C141        H143   1.086   1_565  S
C142        H144   1.085       .  S
C145        C146   1.344       .  D
C145        H147   1.086       .  S
C146        H148   1.086       .  S
C149        C150   1.345       .  D
C149        H487   1.086       .  S
C150        H152   1.086       .  S
H151        C485   1.086       .  S
C153        C154   1.338       .  D
C153        H155   1.087       .  S
C154        H156   1.086       .  S
C157        C158   1.343       .  D
C157        H159   1.086       .  S
C158        H160   1.086       .  S
C161        C162   1.338       .  D
C161        H163   1.087       .  S
C162        H164   1.087       .  S
C165        C166   1.340       .  D
C165        H167   1.086       .  S
C166        H168   1.086       .  S
In169       O171   2.241       .  S
In169       O172   2.257       .  S
In169       O180   2.241       .  S
In169       O174   2.224       .  S
In169       O176   2.256       .  S
In169       O177   2.258       .  S
In169       O178   2.234       .  S
In169       O181   2.243       .  S
C170        O176   1.262       .  A
C170        O178   1.259       .  A
C170        C321   1.472       .  S
O171        C179   1.260       .  A
O172        C179   1.264       .  A
C173        O180   1.264       .  A
C173        O174   1.266       .  A
C173        C333   1.474       .  S
C175        O177   1.264       .  A
C175        O181   1.260       .  A
C175        C329   1.476       .  S
C179        C326   1.476       .  S
In182       O184   2.220       .  S
In182       O521   2.244   1_455  S
In182       O193   2.212       .  S
In182       O187   2.245       .  S
In182       O189   2.262       .  S
In182       O526   2.239   1_455  S
In182       O527   2.219   1_455  S
In182       O194   2.222       .  S
C183        O189   1.271       .  A
C183        O527   1.260   1_455  A
C183        C645   1.477   1_455  S
O184        C528   1.264       .  A
O185       In518   2.258       .  S
O185        C192   1.266       .  A
C186        O193   1.264       .  A
C186        O187   1.271       .  A
C186        C334   1.471       .  S
C188        O190   1.266       .  A
C188        O530   1.260       .  A
C188        C317   1.471       .  S
O190       In518   2.253       .  S
O191       In518   2.229       .  S
O191        C519   1.257       .  A
C192        O520   1.260       .  A
C192        C314   1.471       .  S
O194        C524   1.262       .  A
In195       O197   2.226       .  S
In195       O198   2.258       .  S
In195       O206   2.233       .  S
In195       O202   2.255       .  S
C196        O204   1.258       .  A
C196        C302   1.478       .  S
O197        C205   1.261       .  A
O198        C205   1.266       .  A
C199        O206   1.265       .  A
C199        C305   1.475       .  S
C201        O203   1.268       .  A
C201        O207   1.262       .  A
C201        C318   1.473       .  S
C205        C313   1.471       .  S
In208       O210   2.229       .  S
In208       O211   2.263       .  S
In208       O219   2.231       .  S
In208       O215   2.261       .  S
C209        O217   1.258       .  A
C209        C298   1.481       .  S
O210        C218   1.260       .  A
O211        C218   1.266       .  A
C212        O219   1.264       .  A
C212        C306   1.474       .  S
C214        O216   1.264       .  A
C214        O220   1.261       .  A
C214        C330   1.475       .  S
C218        C325   1.477       .  S
In221       O223   2.234       .  S
In221       O224   2.249       .  S
In221       O232   2.229       .  S
In221       O226   2.250       .  S
In221       O228   2.263       .  S
In221       O229   2.246       .  S
In221       O230   2.230       .  S
In221       O233   2.221       .  S
C222        O228   1.265       .  A
C222        O230   1.255       .  A
C222        C310   1.473       .  S
O223        C231   1.261       .  A
O224        C231   1.262       .  A
C225        O232   1.265       .  A
C225        O226   1.265       .  A
C225        C293   1.478       .  S
C227        O229   1.263       .  A
C227        O233   1.261       .  A
C227        C289   1.466       .  S
C231        C286   1.470       .  S
In234       O236   2.239       .  S
In234       O237   2.258       .  S
In234       O245   2.266       .  S
In234       O239   2.223       .  S
In234       O241   2.251       .  S
In234       O242   2.253       .  S
In234       O243   2.254       .  S
In234       O246   2.239       .  S
C235        O241   1.257       .  A
C235        O243   1.257       .  A
C235        C322   1.471       .  S
O236        C244   1.259       .  A
O237        C244   1.259       .  A
C238        O245   1.266       .  A
C238        O239   1.259       .  A
C238        C294   1.473       .  S
C240        O242   1.259       .  A
C240        O246   1.258       .  A
C240        C281   1.469       .  S
C244        C278   1.471       .  S
In247       O249   2.229       .  S
In247       O586   2.242   1_455  S
In247       O258   2.241       .  S
In247       O254   2.266       .  S
In247       O423   2.241   1_455  S
In247       O424   2.243   1_455  S
C248        O592   1.257       .  A
C248        C637   1.479       .  S
O249        C593   1.261   1_455  A
O250       In583   2.251       .  S
O250        C257   1.260       .  A
C251        O258   1.264       .  A
C251        C273   1.476       .  S
C253        O255   1.263       .  A
C253        O595   1.261       .  A
C253        C290   1.466       .  S
O255       In415   2.247       .  S
O256       In415   2.237       .  S
O256        C584   1.256       .  A
C257        O585   1.259       .  A
C257        C285   1.469       .  S
O259        C589   1.262   1_455  A
In260       O262   2.241       .  S
In260       O263   2.247       .  S
In260       O271   2.243       .  S
In260       O267   2.261       .  S
C261        O269   1.257   1_556  A
C261        C297   1.479   1_556  S
O262        C270   1.261       .  A
O263        C270   1.261       .  A
C264        O271   1.264       .  A
C264        C274   1.475       .  S
C266        O268   1.262       .  A
C266        O272   1.262       .  A
C266        C282   1.469       .  S
C270        C277   1.470       .  S
C273        C274   1.344       .  D
C274        H276   1.087       .  S
C277        C278   1.341       .  D
C277        H279   1.086       .  S
C278        H280   1.085       .  S
C281        C282   1.340       .  D
C281        H283   1.086       .  S
C282        H284   1.086       .  S
C285        C286   1.340       .  D
C285        H287   1.086       .  S
C286        H288   1.086       .  S
C289        C290   1.340       .  D
C289        H291   1.086       .  S
C290        H292   1.086       .  S
C293        C294   1.342       .  D
C293        H295   1.086       .  S
C294        H296   1.087       .  S
C297        C298   1.350       .  D
C298        H300   1.086       .  S
C301        C584   1.479       .  S
C301        C302   1.338   1_545  D
C301        H471   1.087   1_556  S
C302        H304   1.087       .  S
H303        C469   1.087       .  S
C305        C306   1.342       .  D
C305        H307   1.087       .  S
C309        C519   1.473       .  S
C309        C310   1.337   1_565  D
C309        H311   1.087       .  S
C310        H312   1.087       .  S
C313        C314   1.344       .  D
C313        H315   1.086       .  S
C314        H316   1.087       .  S
C317        C318   1.340       .  D
C317        H655   1.086       .  S
C318        H320   1.087       .  S
H319        C653   1.087       .  S
C321        C322   1.344       .  D
C321        H323   1.086       .  S
C322        H324   1.086       .  S
C325        C326   1.347       .  D
C325        H327   1.086       .  S
C326        H328   1.086       .  S
C329        C330   1.345       .  D
C329        H331   1.086       .  S
C330        H332   1.086       .  S
C333        C334   1.340       .  D
C333        H335   1.087       .  S
C334        H336   1.087       .  S
In337       O339   2.231       .  S
In337       O340   2.259       .  S
In337       O348   2.234       .  S
In337       O342   2.248       .  S
In337       O344   2.268       .  S
In337       O345   2.264       .  S
In337       O346   2.241       .  S
In337       O349   2.237       .  S
C338        O344   1.267       .  A
C338        O346   1.259       .  A
C338        C489   1.483       .  S
O339        C347   1.262       .  A
O340        C347   1.267       .  A
C341        O348   1.265       .  A
C341        O342   1.267       .  A
C341        C501   1.478       .  S
C343        O345   1.267       .  A
C343        O349   1.260       .  A
C343        C497   1.479       .  S
C347        C494   1.477       .  S
In350       O352   2.240       .  S
In350       O361   2.245       .  S
In350       O355   2.240       .  S
In350       O357   2.261       .  S
In350       O362   2.242       .  S
C351        O357   1.262       .  A
O353        C360   1.263       .  A
C354        O361   1.265       .  A
C354        O355   1.265       .  A
C354        C502   1.477       .  S
C356        O358   1.263       .  A
C356        C485   1.474       .  S
C360        C482   1.469       .  S
In363       O365   2.219   1_556  S
In363       O366   2.248   1_556  S
In363       O374   2.225   1_556  S
In363       O536   2.258   1_556  S
In363       O370   2.274   1_556  S
In363       O539   2.242       .  S
In363       O540   2.224       .  S
In363       O543   2.220       .  S
C364        O538   1.268       .  A
C364        O372   1.257   1_655  A
C364        C470   1.474   1_655  S
O365        C373   1.263       .  A
O366        C373   1.266       .  A
C367        O374   1.263       .  A
C367        O536   1.270       .  A
C367        C473   1.479       .  S
O368       In531   2.241       .  S
O368        C535   1.268       .  A
C369        O371   1.267   1_655  A
C369        O375   1.261       .  A
C369        C486   1.475   1_655  S
O370        C532   1.270   1_554  A
O371       In531   2.259   1_455  S
O372       In531   2.224   1_455  S
C373        C481   1.471       .  S
O375       In531   2.228       .  S
In376       O378   2.247       .  S
In376       O379   2.258       .  S
In376       O387   2.242       .  S
In376       O549   2.253       .  S
In376       O383   2.271       .  S
In376       O552   2.255   1_554  S
In376       O553   2.252       .  S
In376       O556   2.244   1_554  S
C377        O551   1.263       .  A
C377        O385   1.259       .  A
C377        C466   1.479       .  S
O378        C386   1.261       .  A
O379        C386   1.264       .  A
C380        O387   1.263       .  A
C380        O549   1.267       .  A
C380        C474   1.480       .  S
O381       In544   2.242       .  S
O381        C548   1.266       .  A
C382        O384   1.266       .  A
C382        O388   1.258       .  A
C382        C498   1.477       .  S
O383        C545   1.265       .  A
O384       In544   2.271       .  S
O385       In544   2.243       .  S
C386        C493   1.477       .  S
O388       In544   2.235       .  S
In389       O391   2.233       .  S
In389       O392   2.241       .  S
In389       O400   2.243       .  S
In389       O394   2.256       .  S
In389       O396   2.271       .  S
In389       O397   2.241       .  S
In389       O398   2.247       .  S
In389       O401   2.233       .  S
C390        O396   1.264       .  A
C390        O398   1.257       .  A
C390        C478   1.480   1_545  S
O391        C399   1.261       .  A
O392        C399   1.261       .  A
C393        O400   1.263       .  A
C393        O394   1.267       .  A
C393        C461   1.482       .  S
C395        O397   1.261       .  A
C395        O401   1.261       .  A
C395        C457   1.467       .  S
C399        C454   1.467       .  S
In402       O404   2.227       .  S
In402       O405   2.252       .  S
In402       O413   2.234       .  S
In402       O407   2.261       .  S
In402       O409   2.279       .  S
In402       O410   2.246       .  S
In402       O411   2.225       .  S
In402       O414   2.225       .  S
C403        O409   1.270       .  A
C403        O411   1.258       .  A
C403        C490   1.481       .  S
O404        C412   1.263       .  A
O405        C412   1.266       .  A
C406        O413   1.263       .  A
C406        O407   1.269       .  A
C406        C462   1.481       .  S
C408        O410   1.266       .  A
C408        O414   1.263       .  A
C408        C449   1.471       .  S
C412        C446   1.475       .  S
In415       O417   2.221   1_556  S
In415       O426   2.232       .  S
In415       O588   2.256       .  S
In415       O422   2.271       .  S
In415       O595   2.223       .  S
C416        O590   1.261       .  A
O418        C425   1.265       .  A
C419        O426   1.263       .  A
C419        O588   1.268       .  A
C419        C441   1.479       .  S
O420       In583   2.245       .  S
O420        C587   1.262       .  A
C421        O423   1.260       .  A
C421        C458   1.466       .  S
O422        C584   1.267       .  A
C425        C453   1.469       .  S
O427       In583   2.244       .  S
In428       O430   2.251   1_556  S
In428       O431   2.248   1_556  S
In428       O439   2.251       .  S
In428       O601   2.253       .  S
In428       O435   2.273       .  S
In428       O604   2.258       .  S
In428       O605   2.255   1_556  S
In428       O608   2.252       .  S
C429        O603   1.259       .  A
C429        O437   1.257       .  A
C429        C465   1.477       .  S
O430        C438   1.261       .  A
O431        C438   1.262       .  A
C432        O439   1.263       .  A
C432        O601   1.265       .  A
C432        C442   1.481       .  S
O433       In596   2.240       .  S
O433        C600   1.262       .  A
C434        O436   1.259       .  A
C434        O440   1.258       .  A
C434        C450   1.470       .  S
O435        C597   1.263       .  A
O436       In596   2.258       .  S
O437       In596   2.262       .  S
C438        C445   1.473       .  S
O440       In596   2.242       .  S
C441        C442   1.343       .  D
C441        H611   1.086       .  S
C442        H444   1.086       .  S
H443        C609   1.086       .  S
C445        C446   1.343       .  D
C445        H447   1.086       .  S
C446        H448   1.086       .  S
C449        C450   1.343       .  D
C449        H451   1.086       .  S
C450        H452   1.086       .  S
C453        C454   1.341       .  D
C453        H455   1.086       .  S
C454        H456   1.086   1_655  S
C457        C458   1.339       .  D
C457        H459   1.086   1_655  S
C458        H460   1.086       .  S
C461        C462   1.343       .  D
C461        H463   1.086       .  S
C462        H464   1.086       .  S
C465        C466   1.347       .  D
C465        H635   1.086       .  S
C466        H468   1.086       .  S
H467        C633   1.086       .  S
C469        C470   1.338   1_655  D
C470        H472   1.087       .  S
C473        C474   1.342       .  D
C473        H475   1.086       .  S
C474        H644   1.086       .  S
H476        C642   1.087       .  S
C477        C478   1.351       .  D
C477        H479   1.085   1_655  S
C478        H480   1.086       .  S
C481        C482   1.343       .  D
C481        H483   1.086   1_655  S
C482        H484   1.086       .  S
C485        C486   1.345   1_655  D
C486        H488   1.086       .  S
C489        C490   1.340       .  D
C489        H491   1.087       .  S
C490        H492   1.087       .  S
C493        C494   1.346       .  D
C493        H495   1.086       .  S
C494        H496   1.086       .  S
C497        C498   1.341       .  D
C497        H499   1.087       .  S
C498        H500   1.087       .  S
C501        C502   1.346       .  D
C501        H503   1.086       .  S
C502        H504   1.086       .  S
In505       O507   2.238       .  S
In505       O508   2.261       .  S
In505       O516   2.250       .  S
In505       O510   2.217       .  S
In505       O512   2.252       .  S
In505       O513   2.267       .  S
In505       O514   2.246       .  S
In505       O517   2.245       .  S
C506        O512   1.259       .  A
C506        O514   1.258       .  A
C506        C657   1.471       .  S
O507        C515   1.258       .  A
O508        C515   1.263       .  A
C509        O516   1.265       .  A
C509        O510   1.261       .  A
C509        C669   1.467       .  S
C511        O513   1.263       .  A
C511        O517   1.259       .  A
C511        C665   1.478       .  S
C515        C662   1.474       .  S
In518       O520   2.220       .  S
In518       O529   2.210       .  S
In518       O523   2.245       .  S
In518       O525   2.255       .  S
In518       O530   2.230       .  S
C519        O525   1.266       .  A
O521        C528   1.268   1_655  A
C522        O529   1.266       .  A
C522        O523   1.267       .  A
C522        C670   1.473       .  S
C524        O526   1.269   1_455  A
C524        C653   1.469       .  S
C528        C650   1.473   1_455  S
In531       O533   2.230       .  S
In531       O534   2.253   1_655  S
In531       O542   2.234       .  S
In531       O538   2.264       .  S
C532        O540   1.258       .  A
C532        C638   1.479       .  S
O533        C541   1.261       .  A
O534        C541   1.266   1_455  A
C535        O542   1.265       .  A
C535        C641   1.476       .  S
C537        O539   1.267       .  A
C537        O543   1.261       .  A
C537        C654   1.468       .  S
C541        C649   1.473   1_655  S
In544       O546   2.230       .  S
In544       O547   2.262       .  S
In544       O555   2.239       .  S
In544       O551   2.264       .  S
C545        O553   1.259       .  A
C545        C634   1.483       .  S
O546        C554   1.260       .  A
O547        C554   1.265       .  A
C548        O555   1.264       .  A
C548        C642   1.476       .  S
C550        O552   1.265       .  A
C550        O556   1.262       .  A
C550        C666   1.477       .  S
C554        C661   1.474       .  S
In557       O559   2.224       .  S
In557       O560   2.247       .  S
In557       O568   2.234       .  S
In557       O562   2.248       .  S
In557       O564   2.273       .  S
In557       O565   2.251       .  S
In557       O566   2.237   1_655  S
In557       O569   2.223       .  S
C558        O564   1.265       .  A
C558        O566   1.255   1_655  A
C558        C646   1.478   1_645  S
O559        C567   1.261       .  A
O560        C567   1.262       .  A
C561        O568   1.265       .  A
C561        O562   1.266       .  A
C561        C629   1.478       .  S
C563        O565   1.263       .  A
C563        O569   1.260       .  A
C563        C625   1.468       .  S
C567        C622   1.465       .  S
In570       O572   2.255       .  S
In570       O573   2.254       .  S
In570       O581   2.261       .  S
In570       O575   2.233       .  S
In570       O577   2.260       .  S
In570       O578   2.258       .  S
In570       O579   2.245       .  S
In570       O582   2.258       .  S
C571        O577   1.258       .  A
C571        O579   1.256       .  A
C571        C658   1.472       .  S
O572        C580   1.259       .  A
O573        C580   1.259       .  A
C574        O581   1.266       .  A
C574        O575   1.260       .  A
C574        C630   1.475       .  S
C576        O578   1.259       .  A
C576        O582   1.259       .  A
C576        C617   1.477       .  S
C580        C614   1.474       .  S
In583       O585   2.239       .  S
In583       O594   2.249       .  S
In583       O590   2.254       .  S
O586        C593   1.261       .  A
C587        O594   1.265       .  A
C587        C609   1.478       .  S
C589        O591   1.264       .  A
C589        C626   1.468       .  S
C593        C621   1.465       .  S
In596       O598   2.248       .  S
In596       O599   2.255       .  S
In596       O607   2.257       .  S
In596       O603   2.262       .  S
C597        O605   1.257   1_556  A
C597        C633   1.483       .  S
O598        C606   1.260       .  A
O599        C606   1.260       .  A
C600        O607   1.265       .  A
C600        C610   1.478       .  S
C602        O604   1.261       .  A
C602        O608   1.260       .  A
C602        C618   1.477       .  S
C606        C613   1.475       .  S
C609        C610   1.343       .  D
C610        H612   1.087       .  S
C613        C614   1.342       .  D
C613        H615   1.086       .  S
C614        H616   1.086       .  S
C617        C618   1.343       .  D
C617        H619   1.086       .  S
C618        H620   1.086       .  S
C621        C622   1.339       .  D
C621        H623   1.087       .  S
C622        H624   1.086   1_655  S
C625        C626   1.341       .  D
C625        H627   1.086   1_655  S
C626        H628   1.086       .  S
C629        C630   1.343       .  D
C629        H631   1.086       .  S
C630        H632   1.086       .  S
C633        C634   1.351   1_556  D
C634        H636   1.086       .  S
C637        C638   1.338   1_545  D
C638        H640   1.087   1_655  S
C641        C642   1.343       .  D
C641        H643   1.087       .  S
C645        C646   1.338   1_655  D
C645        H647   1.087       .  S
C646        H648   1.087       .  S
C649        C650   1.345   1_455  D
C649        H651   1.086       .  S
C650        H652   1.086       .  S
C653        C654   1.338   1_455  D
C654        H656   1.087       .  S
C657        C658   1.343       .  D
C657        H659   1.086       .  S
C658        H660   1.087       .  S
C661        C662   1.346       .  D
C661        H663   1.086       .  S
C662        H664   1.086       .  S
C665        C666   1.346       .  D
C665        H667   1.086       .  S
C666        H668   1.086       .  S
C669        C670   1.342       .  D
C669        H671   1.087       .  S
C670        H672   1.086       .  S
