geometry optimzed in LAMMPS
_audit_creation_date              2020-11-30 
_audit_creation_method            'lammps2cif' 
_symmetry_space_group_name_H-M    'P1' 
_symmetry_Int_Tables_number       1 
_symmetry_cell_setting            triclinic 
loop_ 
_symmetry_equiv_pos_as_xyz 
  x,y,z 
_cell_length_a                    27.83075881 
_cell_length_b                    27.621589172346233 
_cell_length_c                    55.21869101122571 
_cell_angle_alpha                 90.07498203527254 
_cell_angle_beta                  89.91403080064138 
_cell_angle_gamma                 89.99046673405492 
loop_ 
_atom_site_label 
_atom_site_type_symbol 
_atom_site_fract_x 
_atom_site_fract_y 
_atom_site_fract_z 
_atom_site_charge 
O1          O  0.71711256  0.81017194  0.72735643    -0.71500
O2          O  0.71836736  0.70775539  0.77884651    -0.72500
O3          O  0.71692602  0.80966361  0.77848096    -0.61100
O4          O  0.71722181  0.70679901  0.72773931    -0.69500
O5          O  0.79667044  0.70665560  0.72737655    -0.69100
O6          O  0.79639059  0.81088344  0.77859191    -0.60300
O7          O  0.79786037  0.70872885  0.77853396    -0.72800
O8          O  0.79658304  0.81020932  0.72732023    -0.71600
Cu9        Cu  0.71468601  0.75861101  0.75303007     1.04600
Cu10       Cu  0.79965351  0.75918382  0.75285705     1.04300
C11         C  0.75690058  0.82714757  0.71946163     0.94700
C12         C  0.75847729  0.69225117  0.78700014     0.93800
C13         C  0.75626039  0.82628515  0.78690042     0.86000
C14         C  0.75672386  0.68932980  0.71984797     0.92200
O15         O  0.20536576  0.69955800  0.77433401    -0.71500
O16         O  0.20811924  0.80009180  0.72171608    -0.72500
O17         O  0.20797007  0.69735219  0.72291405    -0.61100
O18         O  0.20516543  0.80183236  0.77331127    -0.69500
O19         O  0.28464470  0.80138280  0.77421517    -0.69100
O20         O  0.28749006  0.69715862  0.72353113    -0.60300
O21         O  0.28768658  0.79989091  0.72293482    -0.72800
O22         O  0.28485495  0.69967150  0.77475464    -0.71600
Cu23       Cu  0.20384000  0.74973775  0.74798847     1.04600
Cu24       Cu  0.28886200  0.74956411  0.74885654     1.04300
C25         C  0.24498243  0.68391837  0.78301541     0.94700
C26         C  0.24851738  0.81598246  0.71403838     0.93800
C27         C  0.24796061  0.68051689  0.71522059     0.86000
C28         C  0.24458225  0.81760184  0.78213675     0.92200
O29         O  0.94216699  0.54600541  0.52728594    -0.74700
O30         O  0.04267471  0.54745473  0.47509592    -0.72500
O31         O  0.94081255  0.54746998  0.47564482    -0.61100
O32         O  0.04421635  0.54522038  0.52658739    -0.69500
O33         O  0.04364290  0.46510371  0.52554600    -0.69100
O34         O  0.94137554  0.46730600  0.47532852    -0.60300
O35         O  0.04231234  0.46729474  0.47436208    -0.72800
O36         O  0.94215848  0.46589607  0.52655788    -0.71600
Cu37       Cu  0.99244491  0.54942871  0.50120280     1.04600
Cu38       Cu  0.99232106  0.46373525  0.50044637     1.04300
C39         C  0.92632889  0.50567519  0.53532108     0.94700
C40         C  0.05820033  0.50758302  0.46631208     0.93800
C41         C  0.92520235  0.50730635  0.46720058     0.86000
C42         C  0.06043011  0.50456248  0.53406581     0.92200
C43         C  0.71411079  0.46808119  0.62936883     0.81700
N44         N  0.74872606  0.46882025  0.61203251    -0.76600
C45         C  0.78501654  0.50154951  0.61277465     0.84100
N46         N  0.78656927  0.53397436  0.63125369    -0.76600
C47         C  0.75236809  0.53388654  0.64884468     0.84200
N48         N  0.71608865  0.50087898  0.64776069    -0.78300
C49         C  0.21124916  0.49708776  0.60645655     0.81700
N50         N  0.24528706  0.46181779  0.60596030    -0.76600
C51         C  0.28037739  0.46023427  0.62304351     0.84100
N52         N  0.28116772  0.49457117  0.64075399    -0.76600
C53         C  0.24737047  0.53006979  0.64149733     0.84200
N54         N  0.21274683  0.53086764  0.62425928    -0.78300
O55         O  0.05306792  0.95399556  0.52356218    -0.71500
O56         O  0.94734043  0.95487908  0.47464618    -0.72500
O57         O  0.04890541  0.95408051  0.47270587    -0.61100
O58         O  0.95138987  0.95482236  0.52605913    -0.69500
O59         O  0.95083752  0.03524376  0.52530387    -0.69100
O60         O  0.04943558  0.03440858  0.47288650    -0.60300
O61         O  0.94833340  0.03500216  0.47426483    -0.72800
O62         O  0.05332571  0.03410868  0.52392679    -0.71600
Cu63       Cu  0.00006350  0.95164128  0.49927567     1.04600
Cu64       Cu  0.00047297  0.03749052  0.49916364     1.04300
C65         C  0.07062086  0.99382760  0.53126708     0.94700
C66         C  0.93142815  0.99498472  0.46639091     0.93800
C67         C  0.06476144  0.99421307  0.46448257     0.86000
C68         C  0.93536209  0.99527091  0.53385269     0.92200
C69         C  0.22687181  0.99045150  0.60042562     0.81700
N70         N  0.26286937  0.02356075  0.59999395    -0.76600
C71         C  0.29726368  0.02375774  0.61741513     0.84100
N72         N  0.29484379  0.99052683  0.63553121    -0.76600
C73         C  0.25890742  0.95723105  0.63632954     0.84200
N74         N  0.22518421  0.95752366  0.61861190    -0.78300
C75         C  0.75837922  0.97639706  0.64587864     0.81700
N76         N  0.79154516  0.97307786  0.62788801    -0.76600
C77         C  0.79075544  0.00408342  0.60882157     0.84100
N78         N  0.75603722  0.03861446  0.60789362    -0.76600
C79         C  0.72288652  0.04252802  0.62582844     0.84200
N80         N  0.72418647  0.01136557  0.64478800    -0.78300
O81         O  0.55197956  0.46057310  0.02310756    -0.71500
O82         O  0.45291024  0.46233147  0.97148900    -0.72500
O83         O  0.55456973  0.46398560  0.97244187    -0.61100
O84         O  0.45054102  0.46054938  0.02266284    -0.69500
O85         O  0.45051769  0.54064397  0.02367294    -0.69100
O86         O  0.55365145  0.54412131  0.97368959    -0.60300
O87         O  0.45175642  0.54245195  0.97230472    -0.72800
O88         O  0.55250540  0.54061281  0.02459398    -0.71600
Cu89       Cu  0.50242407  0.45914370  0.99737359     1.04600
Cu90       Cu  0.50196619  0.54480972  0.99858963     1.04300
C91         C  0.56875686  0.49979981  0.03183876     0.94700
C92         C  0.43636542  0.50236701  0.96362501     0.93800
C93         C  0.57122703  0.50476592  0.96544785     0.86000
C94         C  0.43417882  0.50026220  0.03127389     0.92200
C95         C  0.79635614  0.47610277  0.87853721     0.81700
N96         N  0.79669870  0.51182020  0.86166420    -0.76600
C97         C  0.76254470  0.54685766  0.86192130     0.84100
N98         N  0.72796641  0.54625851  0.87920346    -0.76600
C99         C  0.72742936  0.51123658  0.89635916     0.84200
N100        N  0.76159679  0.47625684  0.89579933    -0.78300
C101        C  0.24728016  0.53799524  0.85785429     0.81700
N102        N  0.21312807  0.50300539  0.85817188    -0.76600
C103        C  0.21468282  0.46744638  0.87507373     0.84100
N104        N  0.25056206  0.46703671  0.89173584    -0.76600
C105        C  0.28522245  0.50170956  0.89141720     0.84200
N106        N  0.28325589  0.53693285  0.87436318    -0.78300
O107        O  0.79241603  0.19539977  0.22476074    -0.71500
O108        O  0.79065698  0.30051797  0.27508136    -0.72500
O109        O  0.79062597  0.19797610  0.27617646    -0.61100
O110        O  0.79265699  0.29750185  0.22366256    -0.69500
O111        O  0.71315808  0.29815040  0.22304844    -0.69100
O112        O  0.71097654  0.19710343  0.27506839    -0.60300
O113        O  0.71116884  0.29995787  0.27447604    -0.72800
O114        O  0.71292565  0.19621979  0.22386038    -0.71600
Cu115      Cu  0.79435447  0.24788233  0.24998575     1.04600
Cu116      Cu  0.70930552  0.24792061  0.24914399     1.04300
C117        C  0.75287166  0.17955871  0.21607212     0.94700
C118        C  0.75052287  0.31688046  0.28284477     0.93800
C119        C  0.75051846  0.18138643  0.28377115     0.86000
C120        C  0.75332533  0.31319184  0.21473728     0.92200
O121        O  0.54482015  0.95948839  0.02779702    -0.71500
O122        O  0.44360796  0.95694608  0.97636327    -0.72500
O123        O  0.54562307  0.95996081  0.97680766    -0.61100
O124        O  0.44283212  0.95690905  0.02777032    -0.69500
O125        O  0.44131379  0.03705295  0.02799418    -0.69100
O126        O  0.54343226  0.04000851  0.97703453    -0.60300
O127        O  0.44151666  0.03699520  0.97661203    -0.72800
O128        O  0.54320722  0.03958029  0.02801261    -0.71600
Cu129      Cu  0.49416750  0.95553737  0.00218900     1.04600
Cu130      Cu  0.49214676  0.04116238  0.00242105     1.04300
C131        C  0.56088793  0.99980286  0.03573201     0.94700
C132        C  0.42653519  0.99660497  0.96818552     0.93800
C133        C  0.56143537  0.00054917  0.96907628     0.86000
C134        C  0.42598748  0.99662893  0.03610995     0.92200
C135        C  0.24312801  0.95965376  0.85965645     0.81700
N136        N  0.27749800  0.95926553  0.87711520    -0.76600
C137        C  0.27882976  0.99446850  0.89428626     0.84100
N138        N  0.24532368  0.03018656  0.89398248    -0.76600
C139        C  0.21057435  0.03087670  0.87675956     0.84200
N140        N  0.20982525  0.99557640  0.85963677    -0.78300
C141        C  0.71361474  0.00577254  0.89729571     0.81700
N142        N  0.71559016  0.96977866  0.88053126    -0.76600
C143        C  0.74980330  0.97014815  0.86303486     0.84100
N144        N  0.78192449  0.00680827  0.86232772    -0.76600
C145        C  0.78042828  0.04337485  0.87868676     0.84200
N146        N  0.74603047  0.04262304  0.89623074    -0.78300
O147        O  0.28994451  0.30636794  0.27532645    -0.71500
O148        O  0.29120658  0.19955905  0.22588943    -0.72500
O149        O  0.29038098  0.30241319  0.22388827    -0.61100
O150        O  0.29171376  0.20389071  0.27678842    -0.69500
O151        O  0.21202540  0.20334836  0.27715962    -0.69100
O152        O  0.21083462  0.30142084  0.22380824    -0.60300
O153        O  0.21167205  0.19870025  0.22625116    -0.72800
O154        O  0.21042954  0.30526537  0.27504600    -0.71600
Cu155      Cu  0.29361102  0.25321105  0.25043170     1.04600
Cu156      Cu  0.20850942  0.25224981  0.25052332     1.04300
C157        C  0.24976122  0.32231640  0.28328875     0.94700
C158        C  0.25147489  0.18145473  0.21862753     0.93800
C159        C  0.25049552  0.31765705  0.21540747     0.86000
C160        C  0.25213531  0.18778771  0.28524555     0.92200
C161        C  0.28143069  0.99411496  0.11175389     0.81700
N162        N  0.24534060  0.96126520  0.11108668    -0.76600
C163        C  0.21066611  0.96062779  0.12836626     0.84100
N164        N  0.21252046  0.99359001  0.14663997    -0.76600
C165        C  0.24854541  0.02674596  0.14767122     0.84200
N166        N  0.28269650  0.02676014  0.13009360    -0.78300
C167        C  0.75310497  0.03454262  0.13996698     0.81700
N168        N  0.78632023  0.99851977  0.13981356    -0.76600
C169        C  0.78559802  0.96379770  0.12238202     0.84100
N170        N  0.75109207  0.96527358  0.10504095    -0.76600
C171        C  0.71752699  0.00095406  0.10496343     0.84200
N172        N  0.71884819  0.03539546  0.12249512    -0.78300
C173        C  0.79399194  0.52021737  0.11826925     0.81700
N174        N  0.79343384  0.48506812  0.13537392    -0.76600
C175        C  0.75805258  0.45131197  0.13581267     0.84100
N176        N  0.72274654  0.45318707  0.11887934    -0.76600
C177        C  0.72281559  0.48837611  0.10171301     0.84200
N178        N  0.75846657  0.52175850  0.10154867    -0.78300
C179        C  0.28543110  0.49812716  0.10481725     0.81700
N180        N  0.28508094  0.46358658  0.12228892    -0.76600
C181        C  0.25000772  0.46269791  0.13939403     0.84100
N182        N  0.21503554  0.49692086  0.13878200    -0.76600
C183        C  0.21469917  0.53176001  0.12146579     0.84200
N184        N  0.25014722  0.53208329  0.10455488    -0.78300
C185        C  0.28711521  0.96882314  0.37620588     0.81700
N186        N  0.25037536  0.96674843  0.39229482    -0.76600
C187        C  0.21443395  0.99982546  0.39188974     0.84100
N188        N  0.21564171  0.03542461  0.37498603    -0.76600
C189        C  0.25204679  0.03825697  0.35865331     0.84200
N190        N  0.28765921  0.00467902  0.35942889    -0.78300
C191        C  0.71673689  0.95954386  0.37387559     0.81700
N192        N  0.71673557  0.99485955  0.35672627    -0.76600
C193        C  0.75088491  0.03009991  0.35663191     0.84100
N194        N  0.78522734  0.02960880  0.37408204    -0.76600
C195        C  0.78584855  0.99471044  0.39134087     0.84200
N196        N  0.75150423  0.95994550  0.39106235    -0.78300
C197        C  0.70586218  0.53007221  0.37681294     0.81700
N198        N  0.70819524  0.49650745  0.35890544    -0.76600
C199        C  0.74484803  0.46413807  0.35804971     0.84100
N200        N  0.77967060  0.46619948  0.37525344    -0.76600
C201        C  0.77792110  0.49987772  0.39322271     0.84200
N202        N  0.74069601  0.53152585  0.39390984    -0.78300
C203        C  0.24397947  0.46966360  0.35832342     0.81700
N204        N  0.27907679  0.50361818  0.35950375    -0.76600
C205        C  0.27827257  0.53878183  0.37665331     0.84100
N206        N  0.24159983  0.53968523  0.39285700    -0.76600
C207        C  0.20599040  0.50611689  0.39205337     0.84200
N208        N  0.20749980  0.47119584  0.37470044    -0.78300
O209        O  0.04551513  0.79646921  0.14352971    -0.71500
O210        O  0.94780748  0.69120619  0.14091775    -0.72500
O211        O  0.04886883  0.69411973  0.14169524    -0.61100
O212        O  0.94412210  0.79370474  0.14251782    -0.69500
O213        O  0.94570364  0.79576804  0.10247328    -0.69100
O214        O  0.05054780  0.69650746  0.10161421    -0.60300
O215        O  0.94930804  0.69319734  0.10085612    -0.72800
O216        O  0.04716119  0.79878572  0.10342719    -0.71600
Cu217      Cu  0.99648708  0.74380891  0.14355356     1.04600
Cu218      Cu  0.99816777  0.74620227  0.10069543     1.04300
C219        C  0.06200378  0.81429087  0.12389424     0.94700
C220        C  0.93342944  0.67494467  0.12053715     0.93800
C221        C  0.06614015  0.67925228  0.12155604     0.86000
C222        C  0.92844962  0.81088567  0.12255835     0.92200
O223        O  0.44402912  0.70109815  0.39863590    -0.71500
O224        O  0.55076289  0.79892250  0.39713603    -0.72500
O225        O  0.44896349  0.80356259  0.39789766    -0.61100
O226        O  0.54558555  0.69644647  0.39803028    -0.69500
O227        O  0.54495250  0.69612087  0.35795415    -0.69100
O228        O  0.44786496  0.80213983  0.35777909    -0.60300
O229        O  0.54882747  0.79827314  0.35698923    -0.72800
O230        O  0.44414037  0.70017254  0.35850303    -0.71600
Cu231      Cu  0.49736761  0.75010188  0.39937146     1.04600
Cu232      Cu  0.49640986  0.74914247  0.35645498     1.04300
C233        C  0.42760879  0.68474839  0.37862998     0.94700
C234        C  0.56645476  0.81423243  0.37676176     0.93800
C235        C  0.43298734  0.81977348  0.37780717     0.86000
C236        C  0.56058432  0.67913331  0.37793920     0.92200
O237        O  0.44608122  0.29671903  0.64068714    -0.71500
O238        O  0.55354386  0.20109547  0.64154697    -0.72500
O239        O  0.54751405  0.30316978  0.64283594    -0.61100
O240        O  0.45260865  0.19449734  0.63923761    -0.69500
O241        O  0.45506389  0.19662004  0.59917964    -0.69100
O242        O  0.55096739  0.30527608  0.60283014    -0.60300
O243        O  0.55680471  0.20240444  0.60148705    -0.72800
O244        O  0.44863427  0.29964258  0.60067149    -0.71600
Cu245      Cu  0.49975784  0.24883810  0.64239890     1.04600
Cu246      Cu  0.50295699  0.25112088  0.59959791     1.04300
C247        C  0.43022218  0.31365269  0.62073806     0.94700
C248        C  0.57221262  0.18630625  0.62175270     0.93800
C249        C  0.56478941  0.32129045  0.62341627     0.86000
C250        C  0.43901842  0.17794438  0.61875037     0.92200
O251        O  0.94848531  0.20304731  0.89611211    -0.71500
O252        O  0.05333509  0.30193528  0.89528553    -0.72500
O253        O  0.95209296  0.30457024  0.89566897    -0.61100
O254        O  0.05049767  0.19953145  0.89572337    -0.69500
O255        O  0.05061331  0.19897266  0.85565728    -0.69100
O256        O  0.95157427  0.30435504  0.85551625    -0.60300
O257        O  0.05307766  0.30163373  0.85520375    -0.72800
O258        O  0.94856340  0.20206794  0.85595211    -0.71600
Cu259      Cu  0.00119224  0.25220843  0.89706631     1.04600
Cu260      Cu  0.00098396  0.25163318  0.85415996     1.04300
C261        C  0.93141961  0.18741547  0.87613175     0.94700
C262        C  0.06949411  0.31803511  0.87518805     0.93800
C263        C  0.93614895  0.32108405  0.87565801     0.86000
C264        C  0.06651810  0.18261117  0.87574697     0.92200
C265        C  0.35855777  0.64151206  0.39836418     0.25000
C266        C  0.38967835  0.64732604  0.37850000    -0.23100
C267        C  0.38429928  0.61690043  0.35824461     0.19900
C268        C  0.34841713  0.58174869  0.35770562     0.25000
C269        C  0.31680801  0.57596146  0.37747366    -0.23000
C270        C  0.32249382  0.60627707  0.39787225     0.19900
F271        F  0.29353719  0.60183353  0.41755168    -0.13000
F272        F  0.36230525  0.67052685  0.41814296    -0.15300
F273        F  0.34458960  0.55390320  0.33752143    -0.15300
F274        F  0.41433159  0.62049944  0.33891776    -0.13000
C275        C  0.65112700  0.58690717  0.35538859     0.25000
C276        C  0.66700116  0.56614809  0.37712552    -0.23100
C277        C  0.64673487  0.58145230  0.39914931     0.19900
C278        C  0.61159696  0.61756164  0.39947200     0.25000
C279        C  0.59641959  0.63944542  0.37771160    -0.23000
C280        C  0.61637101  0.62325242  0.35564027     0.19900
F281        F  0.60317404  0.64312607  0.33417916    -0.13000
F282        F  0.67074936  0.57349208  0.33386994    -0.15300
F283        F  0.59260804  0.63090482  0.42114531    -0.15300
F284        F  0.66046094  0.56093972  0.42038497    -0.13000
C285        C  0.64415330  0.91846593  0.35568285     0.25000
C286        C  0.67871040  0.92152868  0.37430592    -0.23100
C287        C  0.67603637  0.88798219  0.39359576     0.19900
C288        C  0.63957378  0.85327255  0.39439144     0.25000
C289        C  0.60508173  0.85081666  0.37592235    -0.23000
C290        C  0.60789896  0.88354142  0.35650186     0.19900
F291        F  0.57475268  0.88261593  0.33847682    -0.13000
F292        F  0.64502322  0.94912452  0.33652013    -0.15300
F293        F  0.63870675  0.82133859  0.41306947    -0.15300
F294        F  0.70846769  0.88845689  0.41192905    -0.13000
C295        C  0.33358033  0.90428630  0.39794224     0.25000
C296        C  0.32568259  0.93187999  0.37685452    -0.23100
C297        C  0.35442209  0.92298836  0.35630989     0.19900
C298        C  0.38958404  0.88698500  0.35672844     0.25000
C299        C  0.39683116  0.85892628  0.37766670    -0.23000
C300        C  0.36864783  0.86821402  0.39831685     0.19900
F301        F  0.37410404  0.84168412  0.41882151    -0.13000
F302        F  0.30768728  0.91222333  0.41842201    -0.15300
F303        F  0.41669380  0.87988870  0.33656357    -0.15300
F304        F  0.34793651  0.94819609  0.33548475    -0.13000
C305        C  0.11132398  0.61208667  0.14179800     0.25000
C306        C  0.10406774  0.64156988  0.12137055    -0.23100
C307        C  0.13312488  0.63427811  0.10078479     0.19900
C308        C  0.16882141  0.59862956  0.10072102     0.25000
C309        C  0.17638855  0.56931496  0.12127473    -0.23000
C310        C  0.14694250  0.57651720  0.14177604     0.19900
F311        F  0.15271168  0.54964231  0.16213079    -0.13000
F312        F  0.08343982  0.61700277  0.16185287    -0.15300
F313        F  0.19550112  0.59270602  0.08032044    -0.15300
F314        F  0.12759006  0.66205959  0.08070655    -0.13000
C315        C  0.84429757  0.58226264  0.09718965     0.25000
C316        C  0.83130586  0.55810604  0.11862557    -0.23100
C317        C  0.85301624  0.57177984  0.14056659     0.19900
C318        C  0.88617220  0.60957130  0.14117107     0.25000
C319        C  0.89857077  0.63451733  0.11979810    -0.23000
C320        C  0.87756608  0.62001830  0.09774569     0.19900
F321        F  0.88867323  0.64254952  0.07662535    -0.13000
F322        F  0.82521923  0.56906574  0.07554068    -0.15300
F323        F  0.90593893  0.62158567  0.16283050    -0.15300
F324        F  0.84113258  0.54968262  0.16170110    -0.13000
C325        C  0.87595597  0.87101902  0.14448621     0.25000
C326        C  0.89073449  0.84901563  0.12264459    -0.23100
C327        C  0.86984365  0.86480336  0.10077582     0.19900
C328        C  0.83566286  0.90185747  0.10073136     0.25000
C329        C  0.82151448  0.92422025  0.12250472    -0.23000
C330        C  0.84187654  0.90821436  0.14438944     0.19900
F331        F  0.82820583  0.92789994  0.16587090    -0.13000
F332        F  0.89467653  0.85704452  0.16606869    -0.15300
F333        F  0.81740027  0.91665263  0.07918244    -0.15300
F334        F  0.88244227  0.84462983  0.07924646    -0.13000
C335        C  0.14072198  0.91618694  0.14703407     0.25000
C336        C  0.17144357  0.92422523  0.12710490    -0.23100
C337        C  0.16466638  0.89639898  0.10591316     0.19900
C338        C  0.12896728  0.86107955  0.10486762     0.25000
C339        C  0.09885345  0.85270439  0.12487140    -0.23000
C340        C  0.10487781  0.88085989  0.14590504     0.19900
F341        F  0.07581556  0.87458829  0.16543145    -0.13000
F342        F  0.14554152  0.94182868  0.16787906    -0.15300
F343        F  0.12482874  0.83425807  0.08434104    -0.15300
F344        F  0.19241074  0.90310225  0.08595317    -0.13000
C345        C  0.29196943  0.36327844  0.18201929     0.25000
C346        C  0.25030391  0.35441487  0.19583557    -0.23100
C347        C  0.20854280  0.38134254  0.19084295     0.19900
C348        C  0.20838623  0.41618791  0.17252781     0.25000
C349        C  0.25006477  0.42516290  0.15867992    -0.23000
C350        C  0.29186125  0.39811959  0.16368256     0.19900
F351        F  0.33319325  0.40569855  0.15115061    -0.13000
F352        F  0.33301420  0.33794650  0.18602119    -0.15300
F353        F  0.16694971  0.44069079  0.16830872    -0.15300
F354        F  0.16775298  0.37469824  0.20394674    -0.13000
C355        C  0.20826385  0.07573740  0.18038924     0.25000
C356        C  0.24993789  0.06380501  0.16715554    -0.23100
C357        C  0.29281157  0.08909256  0.17212355     0.19900
C358        C  0.29347850  0.12678377  0.18898994     0.25000
C359        C  0.25133233  0.14015650  0.20142499    -0.23000
C360        C  0.20896615  0.11340417  0.19730399     0.19900
F361        F  0.16791130  0.12345990  0.20965226    -0.13000
F362        F  0.16622309  0.05197647  0.17661495    -0.15300
F363        F  0.33547636  0.15062049  0.19275420    -0.15300
F364        F  0.33451644  0.07739343  0.16074106    -0.13000
C365        C  0.20381050  0.40596442  0.33282671     0.25000
C366        C  0.24557001  0.43170467  0.33924094    -0.23100
C367        C  0.28885168  0.42105796  0.32699043     0.19900
C368        C  0.29025518  0.38575689  0.30884381     0.25000
C369        C  0.24843009  0.36020160  0.30237855    -0.23000
C370        C  0.20520603  0.37075740  0.31466102     0.19900
F371        F  0.16398169  0.34670036  0.30936611    -0.13000
F372        F  0.16109152  0.41522117  0.34380079    -0.15300
F373        F  0.33275700  0.37696044  0.29755334    -0.15300
F374        F  0.33035387  0.44419860  0.33272184    -0.13000
C375        C  0.29092865  0.08116130  0.32338461     0.25000
C376        C  0.25264653  0.07731707  0.34009539    -0.23100
C377        C  0.21472558  0.11121134  0.33866636     0.19900
C378        C  0.21482748  0.14720605  0.32097570     0.25000
C379        C  0.25276790  0.15050613  0.30430771    -0.23000
C380        C  0.29093722  0.11734863  0.30575655     0.19900
F381        F  0.32779709  0.11895242  0.28962754    -0.13000
F382        F  0.32852540  0.04987207  0.32379377    -0.15300
F383        F  0.17797014  0.17942580  0.32045998    -0.15300
F384        F  0.17707664  0.10990720  0.35425890    -0.13000
C385        C  0.84977199  0.08449558  0.85786751     0.25000
C386        C  0.81703426  0.08257205  0.87746052    -0.23100
C387        C  0.82104076  0.11753992  0.89598976     0.19900
C388        C  0.85802490  0.15181958  0.89546848     0.25000
C389        C  0.89152332  0.15223053  0.87636462    -0.23000
C390        C  0.88647763  0.11880261  0.85739703     0.19900
F391        F  0.91805144  0.11820568  0.83861789    -0.13000
F392        F  0.84687702  0.05305291  0.83900106    -0.15300
F393        F  0.86058751  0.18512728  0.91353324    -0.15300
F394        F  0.78964065  0.11857403  0.91482170    -0.13000
C395        C  0.15281937  0.08452073  0.85456753     0.25000
C396        C  0.17416341  0.06998088  0.87647185    -0.23100
C397        C  0.16027702  0.09313493  0.89808228     0.19900
C398        C  0.12546111  0.12958431  0.89785070     0.25000
C399        C  0.10372642  0.14400082  0.87594705    -0.23000
C400        C  0.11814784  0.12112251  0.85428003     0.19900
F401        F  0.09875201  0.13389372  0.83266357    -0.13000
F402        F  0.16619784  0.06408024  0.83321687    -0.15300
F403        F  0.11330916  0.15073014  0.91921297    -0.15300
F404        F  0.17955085  0.07983399  0.91965231    -0.13000
C405        C  0.62653723  0.95750745  0.05866354     0.25000
C406        C  0.60091422  0.00029199  0.05349614    -0.23100
C407        C  0.61508117  0.04364706  0.06492214     0.19900
C408        C  0.65336748  0.04403278  0.08128881     0.25000
C409        C  0.67848890  0.00109484  0.08668398    -0.23000
C410        C  0.66485325  0.95794526  0.07495881     0.19900
F411        F  0.68783873  0.91558717  0.07956571    -0.13000
F412        F  0.61496925  0.91491537  0.04783755    -0.15300
F413        F  0.66620621  0.08682717  0.09153839    -0.15300
F414        F  0.59186683  0.08592709  0.06042319    -0.13000
C415        C  0.37998542  0.03754176  0.06950303     0.25000
C416        C  0.38884005  0.99595553  0.05538030    -0.23100
C417        C  0.36206265  0.95372878  0.06003210     0.19900
C418        C  0.32733857  0.95309666  0.07832343     0.25000
C419        C  0.31855036  0.99467344  0.09247587    -0.23000
C420        C  0.34535363  0.03689326  0.08782579     0.19900
F421        F  0.33765708  0.07810723  0.10069735    -0.13000
F422        F  0.40527166  0.07895234  0.06589254    -0.15300
F423        F  0.30294355  0.91129419  0.08235032    -0.15300
F424        F  0.36892036  0.91294701  0.04671069    -0.13000
C425        C  0.61986622  0.04656611  0.94289835     0.25000
C426        C  0.60108311  0.00196772  0.95102338    -0.23100
C427        C  0.62119476  0.95876478  0.94191897     0.19900
C428        C  0.65811763  0.96015285  0.92477282     0.25000
C429        C  0.67608355  0.00467404  0.91632755    -0.23000
C430        C  0.65697850  0.04784784  0.92581280     0.19900
F431        F  0.67313550  0.09153964  0.91804649    -0.13000
F432        F  0.60232924  0.08927418  0.95132190    -0.15300
F433        F  0.67687519  0.91763836  0.91677286    -0.15300
F434        F  0.60537609  0.91484579  0.94955197    -0.13000
C435        C  0.37310004  0.03925426  0.93826453     0.25000
C436        C  0.38923358  0.99579221  0.94890517    -0.23100
C437        C  0.36917052  0.95164829  0.94087633     0.19900
C438        C  0.33364861  0.95116787  0.92296918     0.25000
C439        C  0.31705917  0.99468713  0.91282700    -0.23000
C440        C  0.33731420  0.03865024  0.92054726     0.19900
F441        F  0.32337832  0.08119861  0.91045623    -0.13000
F442        F  0.39214031  0.08262114  0.94474262    -0.15300
F443        F  0.31447632  0.90810073  0.91607159    -0.15300
F444        F  0.38336353  0.90873074  0.95046369    -0.13000
C445        C  0.71359682  0.39199109  0.16208187     0.25000
C446        C  0.75696816  0.41456497  0.15535294    -0.23100
C447        C  0.79916214  0.40301081  0.16816397     0.19900
C448        C  0.79790911  0.37042726  0.18744731     0.25000
C449        C  0.75443095  0.34831753  0.19442924    -0.23000
C450        C  0.71233045  0.35932559  0.18137894     0.19900
F451        F  0.66967592  0.33837665  0.18710943    -0.13000
F452        F  0.67189848  0.40225264  0.15042661    -0.15300
F453        F  0.83952776  0.36098698  0.19934781    -0.15300
F454        F  0.84210144  0.42281220  0.16194774    -0.13000
C455        C  0.79575960  0.11760331  0.19043717     0.25000
C456        C  0.75312925  0.14220737  0.19669619    -0.23100
C457        C  0.71066583  0.13118799  0.18393827     0.19900
C458        C  0.71078472  0.09650757  0.16552699     0.25000
C459        C  0.75331993  0.07176120  0.15935253    -0.23000
C460        C  0.79581943  0.08276938  0.17203131     0.19900
F461        F  0.83789216  0.06054080  0.16636993    -0.13000
F462        F  0.83761817  0.12692781  0.20214802    -0.15300
F463        F  0.66872816  0.08663482  0.15409957    -0.15300
F464        F  0.66872523  0.15421957  0.18902000    -0.13000
C465        C  0.79015583  0.40398271  0.33240940     0.25000
C466        C  0.74663017  0.42700389  0.33856128    -0.23100
C467        C  0.70464338  0.41404201  0.32587242     0.19900
C468        C  0.70604663  0.37879470  0.30771544     0.25000
C469        C  0.74945334  0.35532785  0.30172834    -0.23000
C470        C  0.79156547  0.36866358  0.31423643     0.19900
F471        F  0.83433956  0.34727536  0.30914920    -0.13000
F472        F  0.83179450  0.41598000  0.34370875    -0.15300
F473        F  0.66456827  0.36791185  0.29598987    -0.15300
F474        F  0.66163830  0.43465931  0.33128241    -0.13000
C475        C  0.71389358  0.10791393  0.30275443     0.25000
C476        C  0.75002067  0.14339876  0.30256559    -0.23100
C477        C  0.78630265  0.14166226  0.32017390     0.19900
C478        C  0.78660612  0.10513404  0.33764817     0.25000
C479        C  0.75053449  0.06908667  0.33792367    -0.23000
C480        C  0.71416774  0.07111711  0.32012036     0.19900
F481        F  0.67871455  0.03748482  0.31921218    -0.13000
F482        F  0.67890340  0.10791084  0.28563481    -0.15300
F483        F  0.82257040  0.10546942  0.35422062    -0.15300
F484        F  0.82118603  0.17602261  0.32082141    -0.13000
C485        C  0.16565146  0.40550484  0.85349471     0.25000
C486        C  0.17791829  0.42924582  0.87510557    -0.23100
C487        C  0.15456601  0.41654344  0.89668475     0.19900
C488        C  0.11917555  0.38069596  0.89670755     0.25000
C489        C  0.10704437  0.35617149  0.87512225    -0.23000
C490        C  0.13081232  0.36907337  0.85348413     0.19900
F491        F  0.12087027  0.34624360  0.83228090    -0.13000
F492        F  0.18835176  0.41674209  0.83244935    -0.15300
F493        F  0.09620120  0.37088333  0.91784667    -0.15300
F494        F  0.16489008  0.44006037  0.91765112    -0.13000
C495        C  0.83617406  0.40326415  0.89703430     0.25000
C496        C  0.83228074  0.43635153  0.87767816    -0.23100
C497        C  0.86248257  0.43021860  0.85733950     0.19900
C498        C  0.89578421  0.39241054  0.85652570     0.25000
C499        C  0.89981692  0.35995783  0.87599251    -0.23000
C500        C  0.86940145  0.36554270  0.89613550     0.19900
F501        F  0.87115168  0.33393192  0.91493928    -0.13000
F502        F  0.80818933  0.40723052  0.91709739    -0.15300
F503        F  0.92482415  0.38832017  0.83684331    -0.15300
F504        F  0.85987482  0.46046075  0.83802301    -0.13000
C505        C  0.37247354  0.54277161  0.05691140     0.25000
C506        C  0.39626260  0.49970312  0.05018576    -0.23100
C507        C  0.38360216  0.45625462  0.06190023     0.19900
C508        C  0.34791820  0.45581032  0.07971708     0.25000
C509        C  0.32383417  0.49874235  0.08621874    -0.23000
C510        C  0.33670322  0.54225303  0.07466967     0.19900
F511        F  0.31540112  0.58475945  0.08085110    -0.13000
F512        F  0.38343974  0.58567932  0.04626759    -0.15300
F513        F  0.33636644  0.41292926  0.09021218    -0.15300
F514        F  0.40589979  0.41395238  0.05631949    -0.13000
C515        C  0.62431647  0.45196129  0.05843598     0.25000
C516        C  0.60777563  0.49729568  0.05006082    -0.23100
C517        C  0.63004529  0.53967609  0.05876622     0.19900
C518        C  0.66765875  0.53673547  0.07542664     0.25000
C519        C  0.68360845  0.49145634  0.08386887    -0.23000
C520        C  0.66167006  0.44918126  0.07516982     0.19900
F521        F  0.67728980  0.40486508  0.08231698    -0.13000
F522        F  0.60480261  0.40988836  0.05036005    -0.15300
F523        F  0.68777608  0.57840140  0.08366802    -0.15300
F524        F  0.61582385  0.58412932  0.05113275    -0.13000
C525        C  0.38767914  0.54416654  0.93158416     0.25000
C526        C  0.39882195  0.50188516  0.94458301    -0.23100
C527        C  0.37332600  0.45901235  0.93932192     0.19900
C528        C  0.33677238  0.45882436  0.92200611     0.25000
C529        C  0.32478694  0.50144621  0.90943015    -0.23000
C530        C  0.35120034  0.54397418  0.91423322     0.19900
F531        F  0.34135507  0.58597586  0.90249673    -0.13000
F532        F  0.41229750  0.58589626  0.93544920    -0.15300
F533        F  0.31365629  0.41651219  0.91740270    -0.15300
F534        F  0.38311742  0.41707802  0.95114593    -0.13000
C535        C  0.62301296  0.55003315  0.93598905     0.25000
C536        C  0.61157994  0.50661312  0.94803724    -0.23100
C537        C  0.63996566  0.46532595  0.94374179     0.19900
C538        C  0.67802490  0.46699272  0.92730720     0.25000
C539        C  0.68874658  0.51008166  0.91478170    -0.23000
C540        C  0.66117562  0.55177475  0.91961520     0.19900
F541        F  0.67122732  0.59464817  0.90870839    -0.13000
F542        F  0.59701391  0.59097729  0.93976472    -0.15300
F543        F  0.70361340  0.42586511  0.92340903    -0.15300
F544        F  0.63142698  0.42319844  0.95564262    -0.13000
C545        C  0.67348734  0.10720022  0.64517385     0.25000
C546        C  0.68522123  0.07987931  0.62456444    -0.23100
C547        C  0.66023585  0.08800973  0.60286793     0.19900
C548        C  0.62358507  0.12261553  0.60185341     0.25000
C549        C  0.61164560  0.15017923  0.62250742    -0.23000
C550        C  0.63728384  0.14216392  0.64416413     0.19900
F551        F  0.62787088  0.16852772  0.66439687    -0.13000
F552        F  0.69790624  0.10082599  0.66620811    -0.15300
F553        F  0.59891105  0.12796667  0.58083461    -0.15300
F554        F  0.67005438  0.06108590  0.58286858    -0.13000
C555        C  0.36262252  0.07106840  0.63826523     0.25000
C556        C  0.33568272  0.06126613  0.61722379    -0.23100
C557        C  0.34494667  0.08886108  0.59623031     0.19900
C558        C  0.37889402  0.12622656  0.59656346     0.25000
C559        C  0.40453260  0.13697349  0.61786746    -0.23000
C560        C  0.39652518  0.10832547  0.63856138     0.19900
F561        F  0.42160691  0.11612482  0.65927817    -0.13000
F562        F  0.35558640  0.04554279  0.65895424    -0.15300
F563        F  0.38572061  0.15251460  0.57608098    -0.15300
F564        F  0.32126639  0.07988240  0.57521492    -0.13000
C565        C  0.87000443  0.95187996  0.44090459     0.25000
C566        C  0.89370365  0.99505756  0.44740585    -0.23100
C567        C  0.88152115  0.03814123  0.43520374     0.19900
C568        C  0.84666631  0.03801604  0.41702316     0.25000
C569        C  0.82311367  0.99483051  0.41050442    -0.23000
C570        C  0.83523980  0.95177289  0.42269053     0.19900
F571        F  0.81422161  0.90904342  0.41671979    -0.13000
F572        F  0.88022243  0.90942534  0.45215027    -0.15300
F573        F  0.83544714  0.08061497  0.40617435    -0.15300
F574        F  0.90354372  0.08065571  0.44061404    -0.13000
C575        C  0.86993828  0.97328359  0.59266530     0.25000
C576        C  0.82739718  0.00039840  0.58927155    -0.23100
C577        C  0.82062447  0.02449733  0.56699490     0.19900
C578        C  0.85592505  0.02268230  0.54902429     0.25000
C579        C  0.89816038  0.99608681  0.55267415    -0.23000
C580        C  0.90474755  0.97092656  0.57442006     0.19900
F581        F  0.94578318  0.94551580  0.57834007    -0.13000
F582        F  0.87871703  0.94989387  0.61380320    -0.15300
F583        F  0.84837692  0.04606212  0.52773985    -0.15300
F584        F  0.77962486  0.04939685  0.56230202    -0.13000
C585        C  0.16564994  0.94810534  0.57495798     0.25000
C586        C  0.18862417  0.99125088  0.58188116    -0.23100
C587        C  0.17355676  0.03519783  0.57153194     0.19900
C588        C  0.13535499  0.03614541  0.55511820     0.25000
C589        C  0.11147806  0.99304435  0.54856275    -0.23000
C590        C  0.12769137  0.94890145  0.55846240     0.19900
F591        F  0.10682896  0.90616734  0.55235833    -0.13000
F592        F  0.18038480  0.90478439  0.58388203    -0.15300
F593        F  0.12193424  0.07946671  0.54570812    -0.15300
F594        F  0.19474373  0.07764885  0.57785211    -0.13000
C595        C  0.13958280  0.03407391  0.41110327     0.25000
C596        C  0.17480614  0.99736120  0.40992703    -0.23100
C597        C  0.17202848  0.95859594  0.42655168     0.19900
C598        C  0.13577339  0.95720930  0.44400838     0.25000
C599        C  0.10151131  0.99438552  0.44532467    -0.23000
C600        C  0.10349710  0.03257183  0.42861907     0.19900
F601        F  0.07009187  0.06842462  0.42903918    -0.13000
F602        F  0.13991091  0.07203634  0.39556494    -0.15300
F603        F  0.13530795  0.92023663  0.46020027    -0.15300
F604        F  0.20447871  0.92191283  0.42625840    -0.13000
C605        C  0.37732790  0.37241374  0.64313963     0.25000
C606        C  0.39076408  0.35005181  0.62116730    -0.23100
C607        C  0.36630606  0.36328116  0.59983885     0.19900
C608        C  0.33003839  0.39848293  0.60044561     0.25000
C609        C  0.31754955  0.42158663  0.62236241    -0.23000
C610        C  0.34134288  0.40764412  0.64370613     0.19900
F611        F  0.32937621  0.42752581  0.66539440    -0.13000
F612        F  0.39936597  0.36081459  0.66427284    -0.15300
F613        F  0.30801739  0.41064488  0.57938491    -0.15300
F614        F  0.37721634  0.34214697  0.57830466    -0.13000
C615        C  0.64935418  0.41729061  0.64870667     0.25000
C616        C  0.67451186  0.43202474  0.62784642    -0.23100
C617        C  0.66206824  0.41112985  0.60539982     0.19900
C618        C  0.62610226  0.37592512  0.60390799     0.25000
C619        C  0.60152487  0.36041443  0.62483730    -0.23000
C620        C  0.61342694  0.38192179  0.64724207     0.19900
F621        F  0.59059615  0.36865099  0.66794081    -0.13000
F622        F  0.66035004  0.43597799  0.67076540    -0.15300
F623        F  0.61603686  0.35664149  0.58185777    -0.15300
F624        F  0.68435820  0.42498727  0.58464093    -0.13000
C625        C  0.15846048  0.54896274  0.42448773     0.25000
C626        C  0.16658013  0.50724253  0.41028010    -0.23100
C627        C  0.13724352  0.46635202  0.41413058     0.19900
C628        C  0.10185963  0.46671868  0.43211642     0.25000
C629        C  0.09474318  0.50792334  0.44673069    -0.23000
C630        C  0.12305670  0.54926746  0.44246213     0.19900
F631        F  0.11732884  0.58995427  0.45599484    -0.13000
F632        F  0.18453196  0.58992978  0.42102850    -0.15300
F633        F  0.07428680  0.42658371  0.43502374    -0.15300
F634        F  0.14315277  0.42534921  0.40087382    -0.13000
C635        C  0.11013721  0.54386099  0.56657752     0.25000
C636        C  0.09893016  0.50277598  0.55260298    -0.23100
C637        C  0.12490118  0.45968105  0.55658515     0.19900
C638        C  0.16126112  0.45780862  0.57397741     0.25000
C639        C  0.17271053  0.49897917  0.58787870    -0.23000
C640        C  0.14650049  0.54202010  0.58397579     0.19900
F641        F  0.15623785  0.58288902  0.59674669    -0.13000
F642        F  0.08554152  0.58592650  0.56371622    -0.15300
F643        F  0.18457057  0.41518069  0.57740349    -0.15300
F644        F  0.11559795  0.41910262  0.54349693    -0.13000
C645        C  0.87984431  0.54686693  0.56868866     0.25000
C646        C  0.88984225  0.50489684  0.55501404    -0.23100
C647        C  0.86501755  0.46187504  0.56062965     0.19900
C648        C  0.83136836  0.46076995  0.57943184     0.25000
C649        C  0.82157193  0.50262961  0.59317098    -0.23000
C650        C  0.84626858  0.54569214  0.58756470     0.19900
F651        F  0.83726981  0.58720870  0.59996655    -0.13000
F652        F  0.90277894  0.58923250  0.56402350    -0.15300
F653        F  0.80897347  0.41822933  0.58437263    -0.15300
F654        F  0.87278937  0.42063630  0.54779645    -0.13000
C655        C  0.85967205  0.54717221  0.44303262     0.25000
C656        C  0.88841842  0.50641350  0.44783564    -0.23100
C657        C  0.88138347  0.46405542  0.43403055     0.19900
C658        C  0.84574627  0.46202913  0.41632988     0.25000
C659        C  0.81630012  0.50240807  0.41179931    -0.23000
C660        C  0.82393679  0.54517781  0.42527607     0.19900
F661        F  0.79724094  0.58549948  0.42118845    -0.13000
F662        F  0.86547243  0.58888146  0.45574187    -0.15300
F663        F  0.83960141  0.41989193  0.40402804    -0.15300
F664        F  0.90933014  0.42433466  0.43741615    -0.13000
C665        C  0.20645769  0.63183481  0.68305795     0.25000
C666        C  0.24820104  0.64167929  0.69655860    -0.23100
C667        C  0.28978472  0.61392957  0.69201496     0.19900
C668        C  0.28958481  0.57741622  0.67436681     0.25000
C669        C  0.24781825  0.56783427  0.66075913    -0.23000
C670        C  0.20622988  0.59550450  0.66547445     0.19900
F671        F  0.16467895  0.58731623  0.65328033    -0.13000
F672        F  0.16559805  0.65783229  0.68652696    -0.15300
F673        F  0.33070850  0.55215358  0.67039191    -0.15300
F674        F  0.33073815  0.62167044  0.70477920    -0.13000
C675        C  0.20207805  0.63262296  0.81397493     0.25000
C676        C  0.24516676  0.64737663  0.80268729    -0.23100
C677        C  0.28888430  0.62676050  0.81048254     0.19900
C678        C  0.28937597  0.59173526  0.82861459     0.25000
C679        C  0.24632462  0.57614786  0.83929254    -0.23000
C680        C  0.20270566  0.59714431  0.83202447     0.19900
F681        F  0.16077591  0.58423014  0.84284750    -0.13000
F682        F  0.15928696  0.65272280  0.80781708    -0.15300
F683        F  0.33207542  0.57192798  0.83518903    -0.15300
F684        F  0.33149075  0.63983475  0.80042511    -0.13000
C685        C  0.28641496  0.86532575  0.81465547     0.25000
C686        C  0.24395853  0.85409929  0.80193698    -0.23100
C687        C  0.20089512  0.87729850  0.80880981     0.19900
C688        C  0.20049427  0.91112059  0.82768658     0.25000
C689        C  0.24307012  0.92252740  0.84022483    -0.23000
C690        C  0.28594467  0.89900180  0.83353634     0.19900
F691        F  0.32801030  0.90931559  0.84484627    -0.13000
F692        F  0.32872718  0.84353259  0.80903876    -0.15300
F693        F  0.15807033  0.93208081  0.83389257    -0.15300
F694        F  0.15893677  0.86758613  0.79726020    -0.13000
C695        C  0.21226580  0.85797993  0.67814594     0.25000
C696        C  0.25034028  0.85296893  0.69464764    -0.23100
C697        C  0.29085069  0.88303182  0.69214644     0.19900
C698        C  0.29361794  0.91682474  0.67338488     0.25000
C699        C  0.25583182  0.92155550  0.65653766    -0.23000
C700        C  0.21490977  0.89174996  0.65933941     0.19900
F701        F  0.17702579  0.89499830  0.64396443    -0.13000
F702        F  0.17274791  0.82932350  0.67976847    -0.15300
F703        F  0.33379473  0.94448162  0.67177012    -0.15300
F704        F  0.32784764  0.88029109  0.70809750    -0.13000
C705        C  0.71667566  0.63337190  0.81451031     0.25000
C706        C  0.75953670  0.65514395  0.80635142    -0.23100
C707        C  0.80349794  0.64100515  0.81696349     0.19900
C708        C  0.80447333  0.60564769  0.83499459     0.25000
C709        C  0.76166354  0.58417935  0.84299940    -0.23000
C710        C  0.71778691  0.59843962  0.83271830     0.19900
F711        F  0.67593362  0.57745397  0.83978841    -0.13000
F712        F  0.67351200  0.64529774  0.80476528    -0.15300
F713        F  0.84722446  0.59333634  0.84509964    -0.15300
F714        F  0.84572353  0.66157146  0.81016592    -0.13000
C715        C  0.79879644  0.62881083  0.69282695     0.25000
C716        C  0.75582691  0.64838256  0.70221566    -0.23100
C717        C  0.71178190  0.62758042  0.69490397     0.19900
C718        C  0.71075309  0.58943484  0.67821189     0.25000
C719        C  0.75359695  0.57124272  0.66819955    -0.23000
C720        C  0.79764606  0.59085696  0.67600396     0.19900
F721        F  0.83991130  0.57287157  0.66758559    -0.13000
F722        F  0.84221444  0.64630162  0.69980772    -0.15300
F723        F  0.66748082  0.57152761  0.67124697    -0.15300
F724        F  0.66927682  0.64417662  0.70371645    -0.13000
C725        C  0.80106755  0.88370118  0.69147483     0.25000
C726        C  0.75730232  0.86681074  0.70128211    -0.23100
C727        C  0.71412808  0.88871100  0.69365870     0.19900
C728        C  0.71462069  0.92523915  0.67616072     0.25000
C729        C  0.75818837  0.94063134  0.66577924    -0.23000
C730        C  0.80141660  0.92002255  0.67389783     0.19900
F731        F  0.84430974  0.93545728  0.66505348    -0.13000
F732        F  0.84385296  0.86507536  0.69871033    -0.15300
F733        F  0.67211296  0.94427183  0.66877706    -0.15300
F734        F  0.67112705  0.87478073  0.70296524    -0.13000
C735        C  0.79590612  0.91652091  0.83490517     0.25000
C736        C  0.75155008  0.93202872  0.84436137    -0.23100
C737        C  0.70891642  0.91256806  0.83497542     0.19900
C738        C  0.71044817  0.87868640  0.81621762     0.25000
C739        C  0.75486620  0.86299623  0.80657451    -0.23000
C740        C  0.79761714  0.88227680  0.81627750     0.19900
F741        F  0.84128259  0.86824797  0.80780795    -0.13000
F742        F  0.83782429  0.93399440  0.84395710    -0.15300
F743        F  0.66811035  0.86174097  0.80744576    -0.15300
F744        F  0.66548935  0.92765873  0.84332648    -0.13000
loop_ 
_geom_bond_atom_site_label_1 
_geom_bond_atom_site_label_2 
_geom_bond_distance 
_geom_bond_site_symmetry_2 
_ccdc_geom_bond_type 
O1           Cu9   2.012       .  S
O1           C11   1.279       .  A
O2           Cu9   2.005       .  S
O2           C12   1.278       .  A
O3           Cu9   1.991       .  S
O3           C13   1.275       .  A
O4           Cu9   1.999       .  S
O4           C14   1.276       .  A
O5          Cu10   2.022       .  S
O5           C14   1.280       .  A
O6          Cu10   2.015       .  S
O6           C13   1.279       .  A
O7          Cu10   1.990       .  S
O7           C12   1.275       .  A
O8          Cu10   1.997       .  S
O8           C11   1.276       .  A
Cu9         Cu10   2.365       .  S
C11         C726   1.487       .  S
C12         C706   1.482       .  S
C13         C739   1.486       .  S
C14         C716   1.492       .  S
O15         Cu23   2.011       .  S
O15          C25   1.278       .  A
O16         Cu23   2.014       .  S
O16          C26   1.279       .  A
O17         Cu23   2.005       .  S
O17          C27   1.278       .  A
O18         Cu23   2.005       .  S
O18          C28   1.277       .  A
O19         Cu24   2.004       .  S
O19          C28   1.278       .  A
O20         Cu24   2.012       .  S
O20          C27   1.278       .  A
O21         Cu24   1.997       .  S
O21          C26   1.276       .  A
O22         Cu24   1.990       .  S
O22          C25   1.276       .  A
Cu23        Cu24   2.367       .  S
C25         C676   1.484       .  S
C26         C696   1.482       .  S
C27         C666   1.487       .  S
C28         C686   1.486       .  S
O29         Cu37   2.009       .  S
O29          C39   1.278       .  A
O30         Cu37   2.007   1_455  S
O30          C40   1.278       .  A
O31         Cu37   2.016       .  S
O31          C41   1.279       .  A
O32         Cu37   2.015   1_455  S
O32          C42   1.279       .  A
O33         Cu38   1.992   1_455  S
O33          C42   1.276       .  A
O34         Cu38   1.987       .  S
O34          C41   1.275       .  A
O35         Cu38   2.004   1_455  S
O35          C40   1.278       .  A
O36         Cu38   2.006       .  S
O36          C39   1.278       .  A
Cu37        Cu38   2.367       .  S
C39         C646   1.487       .  S
C40         C629   1.483       .  S
C41         C656   1.482       .  S
C42         C636   1.484       .  S
C43         C616   1.488       .  S
C43          N44   1.357       .  A
C43          N48   1.361       .  A
N44          C45   1.356       .  A
C45         C649   1.485       .  S
C45          N46   1.358       .  A
N46          C47   1.359       .  A
C47         C719   1.485       .  S
C47          N48   1.362       .  A
C49         C639   1.486       .  S
C49          N50   1.359       .  A
C49          N54   1.355       .  A
N50          C51   1.360       .  A
C51         C609   1.487       .  S
C51          N52   1.362       .  A
N52          C53   1.359       .  A
C53         C669   1.489       .  S
C53          N54   1.356       .  A
O55         Cu63   1.996       .  S
O55          C65   1.277       .  A
O56         Cu63   2.004   1_655  S
O56          C66   1.278       .  A
O57         Cu63   2.000       .  S
O57          C67   1.277       .  A
O58         Cu63   2.006   1_655  S
O58          C68   1.277       .  A
O59         Cu64   1.997   1_655  S
O59          C68   1.276   1_545  A
O60         Cu64   1.991       .  S
O60          C67   1.276   1_545  A
O61         Cu64   2.002   1_655  S
O61          C66   1.277   1_545  A
O62         Cu64   2.012       .  S
O62          C65   1.279   1_545  A
Cu63        Cu64   2.371   1_565  S
C65         C589   1.486       .  S
C66         C566   1.485       .  S
C67         C599   1.470       .  S
C68         C579   1.466       .  S
C69         C586   1.478       .  S
C69          N70   1.357   1_565  A
C69          N74   1.357       .  A
N70          C71   1.358       .  A
C71         C556   1.489       .  S
C71          N72   1.360   1_545  A
N72          C73   1.360       .  A
C73         C699   1.492       .  S
C73          N74   1.357       .  A
C75         C729   1.479       .  S
C75          N76   1.358       .  A
C75          N80   1.357   1_565  A
N76          C77   1.358   1_565  A
C77         C576   1.487       .  S
C77          N78   1.359       .  A
N78          C79   1.357       .  A
C79         C546   1.472       .  S
C79          N80   1.357       .  A
O81         Cu89   1.982   1_554  S
O81          C91   1.274       .  A
O82         Cu89   1.989       .  S
O82          C92   1.275       .  A
O83         Cu89   2.003       .  S
O83          C93   1.278       .  A
O84         Cu89   2.008   1_554  S
O84          C94   1.278       .  A
O85         Cu90   1.994   1_554  S
O85          C94   1.276       .  A
O86         Cu90   1.988       .  S
O86          C93   1.275       .  A
O87         Cu90   2.017       .  S
O87          C92   1.280       .  A
O88         Cu90   2.015   1_554  S
O88          C91   1.279       .  A
Cu89        Cu90   2.367       .  S
C91         C516   1.483       .  S
C92         C526   1.484       .  S
C93         C536   1.478       .  S
C94         C506   1.484       .  S
C95         C496   1.486       .  S
C95          N96   1.358       .  A
C95         N100   1.357       .  A
N96          C97   1.356       .  A
C97         C709   1.469       .  S
C97          N98   1.354       .  A
N98          C99   1.355       .  A
C99         C539   1.480       .  S
C99         N100   1.356       .  A
C101        C679   1.471       .  S
C101        N102   1.356       .  A
C101        N106   1.355       .  A
N102        C103   1.357       .  A
C103        C486   1.470       .  S
C103        N104   1.359       .  A
N104        C105   1.360       .  A
C105        C529   1.485       .  S
C105        N106   1.356       .  A
O107       Cu115   2.010       .  S
O107        C117   1.278       .  A
O108       Cu115   2.010       .  S
O108        C118   1.278       .  A
O109       Cu115   2.002       .  S
O109        C119   1.277       .  A
O110       Cu115   2.000       .  S
O110        C120   1.277       .  A
O111       Cu116   2.004       .  S
O111        C120   1.278       .  A
O112       Cu116   2.007       .  S
O112        C119   1.278       .  A
O113       Cu116   2.005       .  S
O113        C118   1.278       .  A
O114       Cu116   1.998       .  S
O114        C117   1.277       .  A
Cu115      Cu116   2.368       .  S
C117        C456   1.485       .  S
C118        C469   1.488       .  S
C119        C476   1.477       .  S
C120        C449   1.484       .  S
O121       Cu129   2.001       .  S
O121        C131   1.277       .  A
O122       Cu129   2.005   1_556  S
O122        C132   1.277       .  A
O123       Cu129   2.006   1_556  S
O123        C133   1.278   1_565  A
O124       Cu129   2.008       .  S
O124        C134   1.278       .  A
O125       Cu130   2.001       .  S
O125        C134   1.277   1_545  A
O126       Cu130   1.999   1_556  S
O126        C133   1.277       .  A
O127       Cu130   2.009   1_556  S
O127        C132   1.278   1_545  A
O128       Cu130   2.006       .  S
O128        C131   1.278   1_545  A
Cu129      Cu130   2.366   1_565  S
C131        C406   1.485   1_565  S
C132        C436   1.488       .  S
C133        C426   1.486       .  S
C134        C416   1.483       .  S
C135        C689   1.483       .  S
C135        N136   1.359       .  A
C135        N140   1.358       .  A
N136        C137   1.358       .  A
C137        C439   1.478       .  S
C137        N138   1.358   1_565  A
N138        C139   1.358       .  A
C139        C396   1.481       .  S
C139        N140   1.357   1_545  A
C141        C429   1.481       .  S
C141        N142   1.359   1_545  A
C141        N146   1.362       .  A
N142        C143   1.356       .  A
C143        C736   1.474       .  S
C143        N144   1.351   1_565  A
N144        C145   1.355       .  A
C145        C386   1.488       .  S
C145        N146   1.361       .  A
O147       Cu155   2.013       .  S
O147        C157   1.279       .  A
O148       Cu155   2.008       .  S
O148        C158   1.279       .  A
O149       Cu155   2.002       .  S
O149        C159   1.277       .  A
O150       Cu155   1.995       .  S
O150        C160   1.276       .  A
O151       Cu156   2.001       .  S
O151        C160   1.278       .  A
O152       Cu156   2.007       .  S
O152        C159   1.278       .  A
O153       Cu156   1.997       .  S
O153        C158   1.276       .  A
O154       Cu156   1.994       .  S
O154        C157   1.276       .  A
Cu155      Cu156   2.369       .  S
C157        C369   1.485       .  S
C158        C359   1.483       .  S
C159        C346   1.484       .  S
C160        C379   1.474       .  S
C161        C419   1.482       .  S
C161        N162   1.354       .  A
C161        N166   1.356   1_565  A
N162        C163   1.356       .  A
C163        C336   1.486       .  S
C163        N164   1.359       .  A
N164        C165   1.359   1_565  A
C165        C356   1.485       .  S
C165        N166   1.357       .  A
C167        C459   1.483       .  S
C167        N168   1.358   1_545  A
C167        N172   1.358       .  A
N168        C169   1.358       .  A
C169        C329   1.481       .  S
C169        N170   1.358       .  A
N170        C171   1.358   1_565  A
C171        C409   1.484       .  S
C171        N172   1.357       .  A
C173        C316   1.475       .  S
C173        N174   1.355       .  A
C173        N178   1.354       .  A
N174        C175   1.356       .  A
C175        C446   1.483       .  S
C175        N176   1.358       .  A
N176        C177   1.359       .  A
C177        C519   1.474       .  S
C177        N178   1.355       .  A
C179        C509   1.481       .  S
C179        N180   1.358       .  A
C179        N184   1.358       .  A
N180        C181   1.358       .  A
C181        C349   1.487       .  S
C181        N182   1.357       .  A
N182        C183   1.358       .  A
C183        C309   1.488       .  S
C183        N184   1.357       .  A
C185        C296   1.481       .  S
C185        N186   1.355       .  A
C185        N190   1.357   1_565  A
N186        C187   1.355       .  A
C187        C596   1.487       .  S
C187        N188   1.357   1_565  A
N188        C189   1.358       .  A
C189        C376   1.489       .  S
C189        N190   1.358       .  A
C191        C286   1.491       .  S
C191        N192   1.360       .  A
C191        N196   1.356       .  A
N192        C193   1.361   1_565  A
C193        C479   1.493       .  S
C193        N194   1.358       .  A
N194        C195   1.357   1_545  A
C195        C569   1.483       .  S
C195        N196   1.355       .  A
C197        C276   1.471       .  S
C197        N198   1.356       .  A
C197        N202   1.355       .  A
N198        C199   1.357       .  A
C199        C466   1.486       .  S
C199        N200   1.359       .  A
N200        C201   1.360       .  A
C201        C659   1.484       .  S
C201        N202   1.356       .  A
C203        C366   1.486       .  S
C203        N204   1.356       .  A
C203        N208   1.359       .  A
N204        C205   1.356       .  A
C205        C269   1.486       .  S
C205        N206   1.356       .  A
N206        C207   1.358       .  A
C207        C626   1.488       .  S
C207        N208   1.359       .  A
O209       Cu217   1.995   1_455  S
O209        C219   1.276       .  A
O210       Cu217   1.992       .  S
O210        C220   1.276       .  A
O211       Cu217   2.005   1_455  S
O211        C221   1.278       .  A
O212       Cu217   2.007       .  S
O212        C222   1.278       .  A
O213       Cu218   2.004       .  S
O213        C222   1.278       .  A
O214       Cu218   2.003   1_455  S
O214        C221   1.277       .  A
O215       Cu218   1.998       .  S
O215        C220   1.277       .  A
O216       Cu218   1.998   1_455  S
O216        C219   1.277       .  A
Cu217      Cu218   2.368       .  S
C219        C339   1.477       .  S
C220        C319   1.480       .  S
C221        C306   1.482       .  S
C222        C326   1.487       .  S
O223       Cu231   2.009       .  S
O223        C233   1.278       .  A
O224       Cu231   2.011       .  S
O224        C234   1.279       .  A
O225       Cu231   2.000       .  S
O225        C235   1.277       .  A
O226       Cu231   2.000       .  S
O226        C236   1.277       .  A
O227       Cu232   1.994       .  S
O227        C236   1.277       .  A
O228       Cu232   1.993       .  S
O228        C235   1.276       .  A
O229       Cu232   1.993       .  S
O229        C234   1.276       .  A
O230       Cu232   1.990       .  S
O230        C233   1.276       .  A
Cu231      Cu232   2.370       .  S
C233        C266   1.478       .  S
C234        C289   1.476       .  S
C235        C299   1.477       .  S
C236        C279   1.482       .  S
O237       Cu245   1.997       .  S
O237        C247   1.277       .  A
O238       Cu245   1.995       .  S
O238        C248   1.276       .  A
O239       Cu245   2.005       .  S
O239        C249   1.277       .  A
O240       Cu245   2.001       .  S
O240        C250   1.277       .  A
O241       Cu246   2.011       .  S
O241        C250   1.278       .  A
O242       Cu246   2.014       .  S
O242        C249   1.279       .  A
O243       Cu246   2.017       .  S
O243        C248   1.279       .  A
O244       Cu246   2.021       .  S
O244        C247   1.280       .  A
Cu245      Cu246   2.366       .  S
C247        C606   1.489       .  S
C248        C549   1.484       .  S
C249        C619   1.490       .  S
C250        C559   1.485       .  S
O251       Cu259   2.000   1_655  S
O251        C261   1.277       .  A
O252       Cu259   2.001       .  S
O252        C262   1.277       .  A
O253       Cu259   1.991   1_655  S
O253        C263   1.276       .  A
O254       Cu259   2.001       .  S
O254        C264   1.277       .  A
O255       Cu260   2.008       .  S
O255        C264   1.278       .  A
O256       Cu260   2.004   1_655  S
O256        C263   1.277       .  A
O257       Cu260   2.003       .  S
O257        C262   1.277       .  A
O258       Cu260   2.003   1_655  S
O258        C261   1.278       .  A
Cu259      Cu260   2.369       .  S
C261        C389   1.476       .  S
C262        C489   1.484       .  S
C263        C499   1.475       .  S
C264        C399   1.486       .  S
C265        C266   1.406       .  A
C265        C270   1.398       .  A
C265        F272   1.358       .  S
C266        C267   1.406       .  A
C267        C268   1.393       .  A
C267        F274   1.358       .  S
C268        C269   1.410       .  A
C268        F273   1.358       .  S
C269        C270   1.412       .  A
C270        F271   1.358       .  S
C275        C276   1.403       .  A
C275        C280   1.394       .  A
C275        F282   1.358       .  S
C276        C277   1.404       .  A
C277        C278   1.397       .  A
C277        F284   1.358       .  S
C278        C279   1.411       .  A
C278        F283   1.358       .  S
C279        C280   1.411       .  A
C280        F281   1.358       .  S
C285        C286   1.412       .  A
C285        C290   1.397       .  A
C285        F292   1.356       .  S
C286        C287   1.415       .  A
C287        C288   1.397       .  A
C287        F294   1.357       .  S
C288        C289   1.403       .  A
C288        F293   1.358       .  S
C289        C290   1.406       .  A
C290        F291   1.358       .  S
C295        C296   1.410       .  A
C295        C300   1.395       .  A
C295        F302   1.358       .  S
C296        C297   1.408       .  A
C297        C298   1.395       .  A
C297        F304   1.357       .  S
C298        C299   1.408       .  A
C298        F303   1.358       .  S
C299        C300   1.406       .  A
C300        F301   1.358       .  S
C305        C306   1.407       .  A
C305        C310   1.396       .  A
C305        F312   1.358       .  S
C306        C307   1.408       .  A
C307        C308   1.399       .  A
C307        F314   1.358       .  S
C308        C309   1.411       .  A
C308        F313   1.358       .  S
C309        C310   1.410       .  A
C310        F311   1.358       .  S
C315        C316   1.406       .  A
C315        C320   1.395       .  A
C315        F322   1.358       .  S
C316        C317   1.406       .  A
C317        C318   1.394       .  A
C317        F324   1.358       .  S
C318        C319   1.410       .  A
C318        F323   1.358       .  S
C319        C320   1.409       .  A
C320        F321   1.358       .  S
C325        C326   1.411       .  A
C325        C330   1.398       .  A
C325        F332   1.358       .  S
C326        C327   1.411       .  A
C327        C328   1.397       .  A
C327        F334   1.358       .  S
C328        C329   1.407       .  A
C328        F333   1.358       .  S
C329        C330   1.407       .  A
C330        F331   1.358       .  S
C335        C336   1.410       .  A
C335        C340   1.397       .  A
C335        F342   1.358       .  S
C336        C337   1.412       .  A
C337        C338   1.394       .  A
C337        F344   1.358       .  S
C338        C339   1.405       .  A
C338        F343   1.358       .  S
C339        C340   1.407       .  A
C340        F341   1.358       .  S
C345        C346   1.409       .  A
C345        C350   1.398       .  A
C345        F352   1.358       .  S
C346        C347   1.408       .  A
C347        C348   1.397       .  A
C347        F354   1.358       .  S
C348        C349   1.411       .  A
C348        F353   1.358       .  S
C349        C350   1.410       .  A
C350        F351   1.358       .  S
C355        C356   1.409       .  A
C355        C360   1.397       .  A
C355        F362   1.358       .  S
C356        C357   1.410       .  A
C357        C358   1.396       .  A
C357        F364   1.358       .  S
C358        C359   1.407       .  A
C358        F363   1.358       .  S
C359        C360   1.410       .  A
C360        F361   1.358       .  S
C365        C366   1.408       .  A
C365        C370   1.397       .  A
C365        F372   1.358       .  S
C366        C367   1.411       .  A
C367        C368   1.398       .  A
C367        F374   1.358       .  S
C368        C369   1.408       .  A
C368        F373   1.358       .  S
C369        C370   1.410       .  A
C370        F371   1.358       .  S
C375        C376   1.413       .  A
C375        C380   1.396       .  A
C375        F382   1.357       .  S
C376        C377   1.413       .  A
C377        C378   1.395       .  A
C377        F384   1.356       .  S
C378        C379   1.403       .  A
C378        F383   1.358       .  S
C379        C380   1.405       .  A
C380        F381   1.358       .  S
C385        C386   1.414       .  A
C385        C390   1.394       .  A
C385        F392   1.358       .  S
C386        C387   1.411       .  A
C387        C388   1.399       .  A
C387        F394   1.358       .  S
C388        C389   1.407       .  A
C388        F393   1.358       .  S
C389        C390   1.403       .  A
C390        F391   1.358       .  S
C395        C396   1.407       .  A
C395        C400   1.398       .  A
C395        F402   1.358       .  S
C396        C397   1.407       .  A
C397        C398   1.397       .  A
C397        F404   1.358       .  S
C398        C399   1.411       .  A
C398        F403   1.358       .  S
C399        C400   1.410       .  A
C400        F401   1.358       .  S
C405        C406   1.410   1_565  A
C405        C410   1.396       .  A
C405        F412   1.358       .  S
C406        C407   1.409       .  A
C407        C408   1.398       .  A
C407        F414   1.358       .  S
C408        C409   1.409       .  A
C408        F413   1.358       .  S
C409        C410   1.408   1_545  A
C410        F411   1.358       .  S
C415        C416   1.409   1_545  A
C415        C420   1.396       .  A
C415        F422   1.358       .  S
C416        C417   1.408       .  A
C417        C418   1.397       .  A
C417        F424   1.358       .  S
C418        C419   1.409       .  A
C418        F423   1.358       .  S
C419        C420   1.408   1_565  A
C420        F421   1.358       .  S
C425        C426   1.412       .  A
C425        C430   1.398       .  A
C425        F432   1.358       .  S
C426        C427   1.410   1_545  A
C427        C428   1.397       .  A
C427        F434   1.358       .  S
C428        C429   1.407   1_565  A
C428        F433   1.358       .  S
C429        C430   1.406       .  A
C430        F431   1.358       .  S
C435        C436   1.411   1_545  A
C435        C440   1.397       .  A
C435        F442   1.358       .  S
C436        C437   1.412       .  A
C437        C438   1.399       .  A
C437        F444   1.358       .  S
C438        C439   1.405       .  A
C438        F443   1.358       .  S
C439        C440   1.405   1_565  A
C440        F441   1.358       .  S
C445        C446   1.408       .  A
C445        C450   1.398       .  A
C445        F452   1.358       .  S
C446        C447   1.409       .  A
C447        C448   1.396       .  A
C447        F454   1.358       .  S
C448        C449   1.409       .  A
C448        F453   1.358       .  S
C449        C450   1.410       .  A
C450        F451   1.358       .  S
C455        C456   1.410       .  A
C455        C460   1.399       .  A
C455        F462   1.358       .  S
C456        C457   1.410       .  A
C457        C458   1.396       .  A
C457        F464   1.358       .  S
C458        C459   1.408       .  A
C458        F463   1.358       .  S
C459        C460   1.408       .  A
C460        F461   1.358       .  S
C465        C466   1.409       .  A
C465        C470   1.399       .  A
C465        F472   1.358       .  S
C466        C467   1.409       .  A
C467        C468   1.397       .  A
C467        F474   1.358       .  S
C468        C469   1.410       .  A
C468        F473   1.358       .  S
C469        C470   1.410       .  A
C470        F471   1.358       .  S
C475        C476   1.404       .  A
C475        C480   1.398       .  A
C475        F482   1.358       .  S
C476        C477   1.404       .  A
C477        C478   1.397       .  A
C477        F484   1.358       .  S
C478        C479   1.414       .  A
C478        F483   1.357       .  S
C479        C480   1.413       .  A
C480        F481   1.356       .  S
C485        C486   1.404       .  A
C485        C490   1.398       .  A
C485        F492   1.358       .  S
C486        C487   1.401       .  A
C487        C488   1.397       .  A
C487        F494   1.358       .  S
C488        C489   1.412       .  A
C488        F493   1.358       .  S
C489        C490   1.411       .  A
C490        F491   1.358       .  S
C495        C496   1.411       .  A
C495        C500   1.394       .  A
C495        F502   1.358       .  S
C496        C497   1.412       .  A
C497        C498   1.397       .  A
C497        F504   1.358       .  S
C498        C499   1.405       .  A
C498        F503   1.358       .  S
C499        C500   1.405       .  A
C500        F501   1.358       .  S
C505        C506   1.410       .  A
C505        C510   1.396       .  A
C505        F512   1.358       .  S
C506        C507   1.409       .  A
C507        C508   1.397       .  A
C507        F514   1.358       .  S
C508        C509   1.408       .  A
C508        F513   1.358       .  S
C509        C510   1.407       .  A
C510        F511   1.358       .  S
C515        C516   1.413       .  A
C515        C520   1.394       .  A
C515        F522   1.358       .  S
C516        C517   1.409       .  A
C517        C518   1.397       .  A
C517        F524   1.358       .  S
C518        C519   1.407       .  A
C518        F523   1.358       .  S
C519        C520   1.402       .  A
C520        F521   1.358       .  S
C525        C526   1.406       .  A
C525        C530   1.397       .  A
C525        F532   1.358       .  S
C526        C527   1.411       .  A
C527        C528   1.397       .  A
C527        F534   1.358       .  S
C528        C529   1.408       .  A
C528        F533   1.358       .  S
C529        C530   1.411       .  A
C530        F531   1.358       .  S
C535        C536   1.408       .  A
C535        C540   1.395       .  A
C535        F542   1.358       .  S
C536        C537   1.407       .  A
C537        C538   1.395       .  A
C537        F544   1.358       .  S
C538        C539   1.409       .  A
C538        F543   1.357       .  S
C539        C540   1.409       .  A
C540        F541   1.358       .  S
C545        C546   1.403       .  A
C545        C550   1.397       .  A
C545        F552   1.358       .  S
C546        C547   1.404       .  A
C547        C548   1.399       .  A
C547        F554   1.358       .  S
C548        C549   1.410       .  A
C548        F553   1.358       .  S
C549        C550   1.411       .  A
C550        F551   1.358       .  S
C555        C556   1.410       .  A
C555        C560   1.396       .  A
C555        F562   1.357       .  S
C556        C557   1.412       .  A
C557        C558   1.399       .  A
C557        F564   1.358       .  S
C558        C559   1.408       .  A
C558        F563   1.358       .  S
C559        C560   1.408       .  A
C560        F561   1.358       .  S
C565        C566   1.409       .  A
C565        C570   1.397       .  A
C565        F572   1.358       .  S
C566        C567   1.410   1_565  A
C567        C568   1.397       .  A
C567        F574   1.358       .  S
C568        C569   1.408   1_545  A
C568        F573   1.358       .  S
C569        C570   1.408       .  A
C570        F571   1.358       .  S
C575        C576   1.414   1_565  A
C575        C580   1.398       .  A
C575        F582   1.357       .  S
C576        C577   1.412       .  A
C577        C578   1.396       .  A
C577        F584   1.358       .  S
C578        C579   1.401   1_545  A
C578        F583   1.358       .  S
C579        C580   1.400       .  A
C580        F581   1.358       .  S
C585        C586   1.405       .  A
C585        C590   1.396       .  A
C585        F592   1.358       .  S
C586        C587   1.407   1_565  A
C587        C588   1.398       .  A
C587        F594   1.358       .  S
C588        C589   1.411   1_545  A
C588        F593   1.358       .  S
C589        C590   1.411       .  A
C590        F591   1.358       .  S
C595        C596   1.412   1_545  A
C595        C600   1.394       .  A
C595        F602   1.356       .  S
C596        C597   1.413       .  A
C597        C598   1.395       .  A
C597        F604   1.357       .  S
C598        C599   1.403       .  A
C598        F603   1.358       .  S
C599        C600   1.403   1_565  A
C600        F601   1.358       .  S
C605        C606   1.411       .  A
C605        C610   1.397       .  A
C605        F612   1.358       .  S
C606        C607   1.410       .  A
C607        C608   1.402       .  A
C607        F614   1.358       .  S
C608        C609   1.410       .  A
C608        F613   1.358       .  S
C609        C610   1.407       .  A
C610        F611   1.358       .  S
C615        C616   1.408       .  A
C615        C620   1.400       .  A
C615        F622   1.358       .  S
C616        C617   1.410       .  A
C617        C618   1.398       .  A
C617        F624   1.358       .  S
C618        C619   1.409       .  A
C618        F623   1.358       .  S
C619        C620   1.412       .  A
C620        F621   1.358       .  S
C625        C626   1.411       .  A
C625        C630   1.398       .  A
C625        F632   1.358       .  S
C626        C627   1.410       .  A
C627        C628   1.398       .  A
C627        F634   1.358       .  S
C628        C629   1.408       .  A
C628        F633   1.358       .  S
C629        C630   1.408       .  A
C630        F631   1.358       .  S
C635        C636   1.407       .  A
C635        C640   1.397       .  A
C635        F642   1.358       .  S
C636        C637   1.410       .  A
C637        C638   1.397       .  A
C637        F644   1.358       .  S
C638        C639   1.408       .  A
C638        F643   1.358       .  S
C639        C640   1.412       .  A
C640        F641   1.358       .  S
C645        C646   1.410       .  A
C645        C650   1.399       .  A
C645        F652   1.358       .  S
C646        C647   1.409       .  A
C647        C648   1.398       .  A
C647        F654   1.358       .  S
C648        C649   1.408       .  A
C648        F653   1.358       .  S
C649        C650   1.408       .  A
C650        F651   1.358       .  S
C655        C656   1.407       .  A
C655        C660   1.399       .  A
C655        F662   1.358       .  S
C656        C657   1.409       .  A
C657        C658   1.395       .  A
C657        F664   1.358       .  S
C658        C659   1.407       .  A
C658        F663   1.358       .  S
C659        C660   1.412       .  A
C660        F661   1.358       .  S
C665        C666   1.408       .  A
C665        C670   1.395       .  A
C665        F672   1.358       .  S
C666        C667   1.410       .  A
C667        C668   1.402       .  A
C667        F674   1.358       .  S
C668        C669   1.410       .  A
C668        F673   1.358       .  S
C669        C670   1.411       .  A
C670        F671   1.358       .  S
C675        C676   1.411       .  A
C675        C680   1.399       .  A
C675        F682   1.358       .  S
C676        C677   1.411       .  A
C677        C678   1.393       .  A
C677        F684   1.358       .  S
C678        C679   1.403       .  A
C678        F683   1.358       .  S
C679        C680   1.405       .  A
C680        F681   1.358       .  S
C685        C686   1.410       .  A
C685        C690   1.396       .  A
C685        F692   1.358       .  S
C686        C687   1.410       .  A
C687        C688   1.399       .  A
C687        F694   1.358       .  S
C688        C689   1.409       .  A
C688        F693   1.358       .  S
C689        C690   1.407       .  A
C690        F691   1.358       .  S
C695        C696   1.406       .  A
C695        C700   1.399       .  A
C695        F702   1.358       .  S
C696        C697   1.407       .  A
C697        C698   1.397       .  A
C697        F704   1.358       .  S
C698        C699   1.411       .  A
C698        F703   1.357       .  S
C699        C700   1.414       .  A
C700        F701   1.358       .  S
C705        C706   1.410       .  A
C705        C710   1.395       .  A
C705        F712   1.358       .  S
C706        C707   1.413       .  A
C707        C708   1.396       .  A
C707        F714   1.358       .  S
C708        C709   1.402       .  A
C708        F713   1.358       .  S
C709        C710   1.404       .  A
C710        F711   1.358       .  S
C715        C716   1.410       .  A
C715        C720   1.400       .  A
C715        F722   1.358       .  S
C716        C717   1.413       .  A
C717        C718   1.399       .  A
C717        F724   1.358       .  S
C718        C719   1.406       .  A
C718        F723   1.358       .  S
C719        C720   1.408       .  A
C720        F721   1.358       .  S
C725        C726   1.412       .  A
C725        C730   1.397       .  A
C725        F732   1.358       .  S
C726        C727   1.410       .  A
C727        C728   1.398       .  A
C727        F734   1.358       .  S
C728        C729   1.407       .  A
C728        F733   1.358       .  S
C729        C730   1.405       .  A
C730        F731   1.358       .  S
C735        C736   1.406       .  A
C735        C740   1.397       .  A
C735        F742   1.358       .  S
C736        C737   1.402       .  A
C737        C738   1.396       .  A
C737        F744   1.358       .  S
C738        C739   1.413       .  A
C738        F743   1.358       .  S
C739        C740   1.410       .  A
C740        F741   1.358       .  S
