geometry optimzed in LAMMPS
_audit_creation_date              2020-11-30 
_audit_creation_method            'lammps2cif' 
_symmetry_space_group_name_H-M    'P1' 
_symmetry_Int_Tables_number       1 
_symmetry_cell_setting            triclinic 
loop_ 
_symmetry_equiv_pos_as_xyz 
  x,y,z 
_cell_length_a                    27.80435564 
_cell_length_b                    27.98741256359965 
_cell_length_c                    29.478901933823945 
_cell_angle_alpha                 89.77263569040372 
_cell_angle_beta                  89.8476489049352 
_cell_angle_gamma                 89.91996752561306 
loop_ 
_atom_site_label 
_atom_site_type_symbol 
_atom_site_fract_x 
_atom_site_fract_y 
_atom_site_fract_z 
_atom_site_charge 
C1          C  0.41319436  0.40441856  0.94019481     0.86400
C2          C  0.36739335  0.42087836  0.91477096    -0.53900
C3          C  0.37498342  0.43106769  0.86974760     0.09300
C4          C  0.42747828  0.42341751  0.85408343     0.20300
C5          C  0.43106521  0.36168910  0.91243337    -0.54600
C6          C  0.44062404  0.37188279  0.86803687     0.09400
C7          C  0.44845407  0.44554587  0.93089326    -0.54100
C8          C  0.45633677  0.45498201  0.88630072     0.10000
H9          H  0.33326418  0.42866459  0.93088541     0.14500
H10         H  0.43432310  0.43177672  0.81777140     0.00200
H11         H  0.43933081  0.32729969  0.92780441     0.14800
H12         H  0.46635832  0.46543115  0.95753477     0.14600
C13         C  0.14527052  0.14581583  0.93924449     0.86400
C14         C  0.19051925  0.12747905  0.91392354    -0.53900
C15         C  0.18268241  0.11605940  0.86943454     0.09300
C16         C  0.13081160  0.12569536  0.85343426     0.20300
C17         C  0.13037449  0.18883652  0.91009708    -0.54600
C18         C  0.12020910  0.17812033  0.86604211     0.09400
C19         C  0.10722677  0.10713252  0.93072443    -0.54100
C20         C  0.10021327  0.09629002  0.88633553     0.10000
H21         H  0.22537067  0.12235050  0.92968439     0.14500
H22         H  0.12396270  0.11688836  0.81731745     0.00200
H23         H  0.12736232  0.22474712  0.92264795     0.14800
H24         H  0.08763775  0.08928567  0.95787668     0.14600
C25         C  0.15936908  0.39828035  0.63714289     0.86400
C26         C  0.11688429  0.37914310  0.66496133    -0.53900
C27         C  0.12748857  0.36752143  0.70867490     0.09300
C28         C  0.17983664  0.37871989  0.72205886     0.20300
C29         C  0.17860405  0.44145410  0.66408962    -0.54600
C30         C  0.18875626  0.43130956  0.70869953     0.09400
C31         C  0.19968404  0.36095449  0.64388680    -0.54100
C32         C  0.21059114  0.35119944  0.68787265     0.10000
H33         H  0.08209217  0.37167421  0.64988005     0.14500
H34         H  0.18870477  0.36983648  0.75783478     0.00200
H35         H  0.18865765  0.47522684  0.64899962     0.14800
H36         H  0.21812549  0.34338059  0.61597534     0.14600
C37         C  0.39530084  0.15237097  0.64236645     0.86400
C38         C  0.43887839  0.17329103  0.66814531    -0.53900
C39         C  0.42947200  0.18565407  0.71206838     0.09300
C40         C  0.37785756  0.17335041  0.72767401     0.20300
C41         C  0.38210175  0.10918571  0.67189501    -0.54600
C42         C  0.37076953  0.12006646  0.71576289     0.09400
C43         C  0.35523010  0.18928735  0.64974805    -0.54100
C44         C  0.34592937  0.20000296  0.69381347     0.10000
H45         H  0.47442200  0.17832335  0.65379207     0.14500
H46         H  0.36999100  0.18256056  0.76355329     0.00200
H47         H  0.38105175  0.07302076  0.65962904     0.14800
H48         H  0.33664932  0.20696947  0.62193095     0.14600
O49         O  0.05458246  0.32345878  0.72063817    -0.57900
C50         C  0.46387125  0.21459310  0.73858397     0.74700
O51         O  0.07674966  0.25065353  0.85334717    -0.59100
C52         C  0.09419572  0.33819483  0.73639381     0.74700
C53         C  0.46927387  0.33903346  0.83948043     0.77100
Cd54       Cd  0.03029110  0.27573426  0.78718776     1.37500
O55         O  0.50370449  0.22792905  0.72193134    -0.57900
O56         O  0.48310128  0.35031918  0.79997223    -0.56700
C57         C  0.09247723  0.21171152  0.83742771     0.77000
O58         O  0.48314787  0.29879614  0.85422731    -0.59100
O59         O  0.45445873  0.22907901  0.77815609    -0.57600
O60         O  0.10445462  0.32471432  0.77617090    -0.57500
O61         O  0.08068706  0.20220574  0.79707126    -0.56700
O62         O  0.30183079  0.47541433  0.85961333    -0.57900
C63         C  0.21728862  0.08769176  0.84267194     0.74700
O64         O  0.32725719  0.04761500  0.72738833    -0.59100
C65         C  0.33999655  0.45854937  0.84247397     0.74700
C66         C  0.21625988  0.46413444  0.73804061     0.77100
Cd67       Cd  0.27888788  0.02347290  0.79254408     1.37500
O68         O  0.25350157  0.06798163  0.86075236    -0.57900
O69         O  0.22560030  0.45390375  0.77890890    -0.56700
C70         C  0.34345102  0.08592479  0.74402413     0.77000
O71         O  0.23396494  0.50266398  0.72299624    -0.59100
O72         O  0.21040569  0.07901652  0.80115565    -0.57600
O73         O  0.34839582  0.46940680  0.80156352    -0.57500
O74         O  0.33208064  0.09459393  0.78468576    -0.56700
C75         C  0.40707993  0.40699342  0.13865441     0.86400
C76         C  0.42164175  0.36306746  0.16662516    -0.53900
C77         C  0.43162929  0.37220715  0.21100064     0.09300
C78         C  0.42433243  0.42499454  0.22432893     0.20300
C79         C  0.36418629  0.42953401  0.16408800    -0.54600
C80         C  0.37299717  0.43876772  0.20898186     0.09400
C81         C  0.44725739  0.44388538  0.14701652    -0.54100
C82         C  0.45693654  0.45228003  0.19137633     0.10000
H83         H  0.42781090  0.32834731  0.15127818     0.14500
H84         H  0.43216569  0.43287458  0.26045985     0.00200
H85         H  0.33155275  0.44149825  0.14773268     0.14800
H86         H  0.46643483  0.46237575  0.11998464     0.14600
C87         C  0.14602319  0.14412270  0.14042328     0.86400
C88         C  0.12775601  0.18862672  0.16636883    -0.53900
C89         C  0.11617574  0.17998252  0.21079369     0.09300
C90         C  0.12567458  0.12811632  0.22617975     0.20300
C91         C  0.18928806  0.12844396  0.16914413    -0.54600
C92         C  0.17835311  0.11756246  0.21317904     0.09400
C93         C  0.10687795  0.10644819  0.14874809    -0.54100
C94         C  0.09621141  0.09836550  0.19310177     0.10000
H95         H  0.12302227  0.22373650  0.15135846     0.14500
H96         H  0.11672494  0.12062136  0.26226044     0.00200
H97         H  0.22532738  0.12497993  0.15607335     0.14800
H98         H  0.08902153  0.08738374  0.12150478     0.14600
C99         C  0.39784856  0.15511903  0.44136629     0.86400
C100        C  0.37460596  0.11295086  0.41576018    -0.53900
C101        C  0.36223140  0.12311574  0.37193755     0.09300
C102        C  0.37587237  0.17409416  0.35666406     0.20300
C103        C  0.44144809  0.16693567  0.41084795    -0.54600
C104        C  0.42975344  0.17950256  0.36733021     0.09400
C105        C  0.36241076  0.19673260  0.43489371    -0.54100
C106        C  0.35136785  0.20674837  0.39104837     0.10000
H107        H  0.36822282  0.07799590  0.43057196     0.14500
H108        H  0.36617962  0.18263081  0.32100369     0.00200
H109        H  0.47813898  0.16763620  0.42236828     0.14800
H110        H  0.34650634  0.21616285  0.46305544     0.14600
C111        C  0.15307717  0.38887060  0.43914491     0.86400
C112        C  0.17415005  0.43284336  0.41418039    -0.53900
C113        C  0.18446430  0.42513617  0.36931513     0.09300
C114        C  0.17215750  0.37410447  0.35312642     0.20300
C115        C  0.10913101  0.37518823  0.41086981    -0.54600
C116        C  0.11901324  0.36576000  0.36640781     0.09400
C117        C  0.19120591  0.35028724  0.43015725    -0.54100
C118        C  0.20044423  0.34173808  0.38560061     0.10000
H119        H  0.18418982  0.46588104  0.43059962     0.14500
H120        H  0.18060374  0.36742415  0.31685956     0.00200
H121        H  0.07392666  0.36926004  0.42594778     0.14800
H122        H  0.21066891  0.33206106  0.45707158     0.14600
O123        O  0.32264491  0.04844269  0.35814885    -0.57900
C124        C  0.21288108  0.45974633  0.34207194     0.74700
O125        O  0.25115363  0.07397682  0.22581133    -0.59100
C126        C  0.33413477  0.08959582  0.34388593     0.74700
C127        C  0.33926465  0.46676351  0.23753177     0.77100
Cd128      Cd  0.27436360  0.02550954  0.29156245     1.37500
O129        O  0.22949556  0.49762089  0.35926859    -0.57900
O130        O  0.34960063  0.47905350  0.27757272    -0.56700
C131        C  0.21144995  0.08881745  0.24140150     0.77000
O132        O  0.29899391  0.48091245  0.22275858    -0.59100
O133        O  0.22350315  0.45239219  0.30096620    -0.57600
O134        O  0.31892489  0.10102842  0.30497331    -0.57500
O135        O  0.20061911  0.07525920  0.28110020    -0.56700
O136        O  0.47465849  0.29881540  0.22235624    -0.57900
C137        C  0.08770423  0.21404271  0.23791261     0.74700
O138        O  0.04659875  0.32126868  0.35503391    -0.59100
C139        C  0.45919574  0.33767852  0.23882105     0.74700
C140        C  0.46256596  0.20865601  0.33889950     0.77100
Cd141      Cd  0.02303075  0.27477371  0.28843747     1.37500
O142        O  0.06753867  0.25000682  0.22001094    -0.57900
O143        O  0.45025341  0.22434228  0.30036022    -0.56700
C144        C  0.08483759  0.33848685  0.33829274     0.77000
O145        O  0.50294388  0.22252993  0.35343193    -0.59100
O146        O  0.07948719  0.20706555  0.27956464    -0.57600
O147        O  0.47149001  0.34677819  0.27914162    -0.57500
O148        O  0.09356371  0.32835987  0.29735526    -0.56700
C149        C  0.27174342  0.22965116  0.36214514    -0.05900
C150        C  0.31647839  0.24419389  0.37876716     0.00000
C151        C  0.32519126  0.29305659  0.38752663    -0.08500
C152        C  0.28667102  0.32515061  0.38449706    -0.05900
C153        C  0.24045379  0.30977015  0.37276193     0.00000
C154        C  0.23308177  0.26189690  0.35905325    -0.08400
C155        C  0.18459340  0.24462806  0.34266240     0.61900
H156        H  0.26651509  0.19219004  0.35449534     0.12600
H157        H  0.29156234  0.36194748  0.39485983     0.12600
C158        C  0.37350121  0.31112383  0.40377726     0.62200
F159        F  0.18590498  0.19709827  0.32974504    -0.23000
F160        F  0.17105093  0.27133129  0.30538572    -0.20300
F161        F  0.15061365  0.24945501  0.37664445    -0.20000
F162        F  0.41055660  0.28819767  0.38141154    -0.20100
F163        F  0.37753811  0.30320523  0.44989159    -0.20400
F164        F  0.37840180  0.35960616  0.39558568    -0.23000
C165        C  0.47815611  0.03483167  0.21006728    -0.05900
C166        C  0.49344623  0.48759777  0.20444458     0.00000
C167        C  0.04318935  0.47657032  0.20266715    -0.08500
C168        C  0.07626341  0.01429989  0.20453156    -0.05900
C169        C  0.06080264  0.06181856  0.20623980     0.00000
C170        C  0.01123411  0.07254099  0.21048568    -0.08400
C171        C  0.49348055  0.12372770  0.21444370     0.61900
H172        H  0.43986077  0.04202469  0.21121414     0.12600
H173        H  0.11443297  0.00729147  0.20099133     0.12600
C174        C  0.06109922  0.42574680  0.19697672     0.62200
F175        F  0.44375868  0.12641061  0.21402234    -0.23000
F176        F  0.01050371  0.15092918  0.17859020    -0.20300
F177        F  0.00924647  0.14249615  0.25475290    -0.20000
F178        F  0.04526800  0.40732946  0.15622744    -0.20100
F179        F  0.04399331  0.39796606  0.23219013    -0.20400
F180        F  0.11082381  0.42315620  0.19741155    -0.23000
C181        C  0.43441955  0.17274635  0.56753858    -0.05900
C182        C  0.40098250  0.14379709  0.59080872     0.00000
C183        C  0.36652792  0.11867942  0.56381566    -0.08500
C184        C  0.37110126  0.12036391  0.51619312    -0.05900
C185        C  0.40588673  0.14798634  0.49291304     0.00000
C186        C  0.43626980  0.17757348  0.52007129    -0.08400
C187        C  0.47038472  0.21586773  0.50154725     0.61900
H188        H  0.45768397  0.19556418  0.58678535     0.12600
H189        H  0.34423239  0.10186747  0.49651997     0.12600
C190        C  0.32377007  0.09046315  0.58307962     0.62200
F191        F  0.48247490  0.24908601  0.53431127    -0.23000
F192        F  0.44982203  0.24167146  0.46671514    -0.20300
F193        F  0.51266516  0.19469850  0.48724284    -0.20000
F194        F  0.30041676  0.11517173  0.61704521    -0.20100
F195        F  0.33924209  0.04671445  0.59920700    -0.20400
F196        F  0.28937878  0.08124889  0.55036196    -0.23000
C197        C  0.13747455  0.35749790  0.56549149    -0.05900
C198        C  0.14596974  0.40170528  0.58650525     0.00000
C199        C  0.14165179  0.44338960  0.55909306    -0.08500
C200        C  0.14219137  0.43809558  0.51143744    -0.05900
C201        C  0.14221514  0.39288781  0.49020862     0.00000
C202        C  0.13437441  0.35193667  0.51849879    -0.08400
C203        C  0.12526576  0.30056801  0.50338457     0.61900
H204        H  0.13512914  0.32567617  0.58655472     0.12600
H205        H  0.14102268  0.47007971  0.49093493     0.12600
C206        C  0.13125722  0.49290048  0.57748326     0.62200
F207        F  0.08515465  0.28317730  0.52587829    -0.23000
F208        F  0.16439550  0.27258107  0.51518802    -0.20300
F209        F  0.11690957  0.29489477  0.45780267    -0.20000
F210        F  0.17348036  0.51881081  0.57988904    -0.20100
F211        F  0.10915132  0.49090645  0.61949631    -0.20400
F212        F  0.10013640  0.01718648  0.54900064    -0.23000
C213        C  0.32931014  0.28573297  0.69414373    -0.05900
C214        C  0.31326698  0.23974315  0.70516671     0.00000
C215        C  0.26472358  0.23220158  0.71760026    -0.08500
C216        C  0.23263259  0.27100758  0.71530997    -0.05900
C217        C  0.24791778  0.31599693  0.70006368     0.00000
C218        C  0.29728274  0.32431517  0.69099131    -0.08400
C219        C  0.31611811  0.37335667  0.67756960     0.61900
H220        H  0.36681563  0.29039082  0.68505858     0.12600
H221        H  0.19476798  0.26583887  0.72260591     0.12600
C222        C  0.24685961  0.18319252  0.73160784     0.62200
F223        F  0.36565431  0.37344381  0.67253701    -0.23000
F224        F  0.30433390  0.40598601  0.71083437    -0.20300
F225        F  0.29644224  0.38792093  0.63681748    -0.20000
F226        F  0.27040205  0.16906290  0.77058902    -0.20100
F227        F  0.25580081  0.15055109  0.69752445    -0.20400
F228        F  0.19793156  0.18308964  0.74045290    -0.23000
C229        C  0.17925433  0.12026824  0.01416504    -0.05900
C230        C  0.15005154  0.15345328  0.99094831     0.00400
C231        C  0.11798335  0.18171026  0.01800968    -0.08500
C232        C  0.12355095  0.18122930  0.06549457    -0.05900
C233        C  0.15407008  0.14916109  0.08871378     0.00000
C234        C  0.17961597  0.11498307  0.06166236    -0.08400
C235        C  0.20635943  0.07120147  0.08022006     0.61900
H236        H  0.19956098  0.09483391  0.99453276     0.12600
H237        H  0.09984955  0.20367608  0.08494862     0.12600
C238        C  0.07519390  0.21030144  0.99964111     0.62200
F239        F  0.21211072  0.03637577  0.04735256    -0.23000
F240        F  0.18165107  0.04955960  0.11537426    -0.20300
F241        F  0.25184187  0.08424453  0.09419427    -0.20000
F242        F  0.05195006  0.18616463  0.96533081    -0.20100
F243        F  0.09032001  0.25464462  0.98463288    -0.20400
F244        F  0.04079594  0.21818259  0.03289823    -0.23000
C245        C  0.36556927  0.39248405  0.01374951    -0.05900
C246        C  0.41058278  0.39375969  0.99134017     0.00000
C247        C  0.45281472  0.38687827  0.01845749    -0.08500
C248        C  0.44796095  0.38755515  0.06569335    -0.05900
C249        C  0.40376549  0.39485087  0.08786024     0.00000
C250        C  0.36138989  0.39057256  0.06146574    -0.08400
C251        C  0.31234208  0.37831165  0.08096933     0.61900
H252        H  0.33285399  0.39120655  0.99425514     0.12600
H253        H  0.48032368  0.38471268  0.08602364     0.12600
C254        C  0.00492462  0.38208466  0.00209107     0.62200
F255        F  0.28987497  0.34493515  0.05374568    -0.23000
F256        F  0.28393878  0.41887892  0.08238923    -0.20300
F257        F  0.31561843  0.35807129  0.12369892    -0.20000
F258        F  0.03006522  0.42261233  0.01446741    -0.20100
F259        F  0.01096494  0.37585277  0.95621391    -0.20400
F260        F  0.02597137  0.34301412  0.02310424    -0.23000
C261        C  0.01675402  0.07404915  0.87082550    -0.05900
C262        C  0.06491762  0.05980990  0.87285612     0.00000
C263        C  0.07702642  0.01071182  0.87027926    -0.08500
C264        C  0.03960088  0.47702142  0.87017268    -0.05900
C265        C  0.49195458  0.49111835  0.87244768     0.00000
C266        C  0.47973730  0.04026504  0.86996350    -0.08400
C267        C  0.42795612  0.05671622  0.86723198     0.61900
H268        H  0.00855652  0.11187472  0.87211260     0.12600
H269        H  0.04774036  0.43915321  0.87103527     0.12600
C270        C  0.12861297  0.49421244  0.86630774     0.62200
F271        F  0.42415639  0.10603391  0.86632778    -0.23000
F272        F  0.40210147  0.03998909  0.90412281    -0.20300
F273        F  0.40813494  0.03937362  0.82779205    -0.20000
F274        F  0.15525815  0.51102838  0.90240369    -0.20100
F275        F  0.14805594  0.01082834  0.82687948    -0.20400
F276        F  0.13235433  0.44487450  0.86590290    -0.23000
C277        C  0.41317077  0.90438171  0.94024523     0.86400
C278        C  0.36735348  0.92080453  0.91481460    -0.53900
C279        C  0.37494154  0.93098905  0.86978810     0.09300
C280        C  0.42743273  0.92335032  0.85412871     0.20300
C281        C  0.43106973  0.86165203  0.91250459    -0.54600
C282        C  0.44061120  0.87183205  0.86810414     0.09400
C283        C  0.44839982  0.94552824  0.93092633    -0.54100
C284        C  0.45625316  0.95495643  0.88632862     0.10000
H285        H  0.33323012  0.92860901  0.93093116     0.14500
H286        H  0.43427233  0.93169837  0.81781367     0.00200
H287        H  0.43936547  0.82727737  0.92788986     0.14800
H288        H  0.46627938  0.96545083  0.95755761     0.14600
C289        C  0.14522419  0.64577019  0.93919109     0.86400
C290        C  0.19046761  0.62741727  0.91387700    -0.53900
C291        C  0.18263649  0.61601340  0.86938470     0.09300
C292        C  0.13077342  0.62567158  0.85337514     0.20300
C293        C  0.13035094  0.68880382  0.91004803    -0.54600
C294        C  0.12019808  0.67809995  0.86598641     0.09400
C295        C  0.10716537  0.60710670  0.93065977    -0.54100
C296        C  0.10014586  0.59628097  0.88626793     0.10000
H297        H  0.22531594  0.62227542  0.92964217     0.14500
H298        H  0.12392810  0.61687412  0.81725551     0.00200
H299        H  0.12735135  0.72471333  0.92260664     0.14800
H300        H  0.08755511  0.58927553  0.95780594     0.14600
C301        C  0.15954484  0.89835187  0.63709439     0.86400
C302        C  0.11705304  0.87920422  0.66490388    -0.53900
C303        C  0.12764730  0.86755431  0.70861239     0.09300
C304        C  0.17999301  0.87874349  0.72200622     0.20300
C305        C  0.17877912  0.94150755  0.66406371    -0.54600
C306        C  0.18891723  0.93134024  0.70867078     0.09400
C307        C  0.19985813  0.86101809  0.64382599    -0.54100
C308        C  0.21074903  0.85123400  0.68781260     0.10000
H309        H  0.08226008  0.87175156  0.64981752     0.14500
H310        H  0.18885354  0.86984199  0.75777940     0.00200
H311        H  0.18883925  0.97528846  0.64899416     0.14800
H312        H  0.21829305  0.84344949  0.61590849     0.14600
C313        C  0.39535484  0.65231699  0.64242435     0.86400
C314        C  0.43891588  0.67326601  0.66820694    -0.53900
C315        C  0.42949826  0.68562534  0.71212832     0.09300
C316        C  0.37788940  0.67329872  0.72773124     0.20300
C317        C  0.38217901  0.60913140  0.67196069    -0.54600
C318        C  0.37082260  0.62001291  0.71582204     0.09400
C319        C  0.35526403  0.68921494  0.64980117    -0.54100
C320        C  0.34595670  0.69993331  0.69386563     0.10000
H321        H  0.47446589  0.67831275  0.65386546     0.14500
H322        H  0.37001458  0.68250814  0.76360889     0.00200
H323        H  0.38116739  0.57296185  0.65970974     0.14800
H324        H  0.33668572  0.70689451  0.62198179     0.14600
O325        O  0.05472643  0.82349767  0.72054788    -0.57900
C326        C  0.46388136  0.71457894  0.73864420     0.74700
O327        O  0.07679785  0.75066230  0.85326796    -0.59100
C328        C  0.09433990  0.83821944  0.73631562     0.74700
C329        C  0.46926257  0.83898944  0.83954969     0.77100
Cd330      Cd  0.03038274  0.77576105  0.78708783     1.37500
O331        O  0.50368875  0.72796743  0.72197475    -0.57900
O332        O  0.48307562  0.85028090  0.80003916    -0.56700
C333        C  0.09251229  0.71171226  0.83735587     0.77000
O334        O  0.48315086  0.79875689  0.85429617    -0.59100
O335        O  0.45448175  0.72902064  0.77823374    -0.57600
O336        O  0.10458156  0.82472136  0.77609147    -0.57500
O337        O  0.08074775  0.70221726  0.79698994    -0.56700
O338        O  0.30177187  0.97531142  0.85961941    -0.57900
C339        C  0.21724688  0.58765487  0.84262283     0.74700
O340        O  0.32719655  0.54761922  0.72736707    -0.59100
C341        C  0.33999889  0.95853516  0.84252278     0.74700
C342        C  0.21638536  0.96416478  0.73803930     0.77100
Cd343      Cd  0.27883220  0.52343254  0.79250035     1.37500
O344        O  0.25338168  0.56783566  0.86073363    -0.57900
O345        O  0.22574234  0.95390077  0.77889615    -0.56700
C346        C  0.34345256  0.58588092  0.74404807     0.77000
O347        O  0.23403737  0.00273380  0.72303058    -0.59100
O348        O  0.21044330  0.57909823  0.80107237    -0.57600
O349        O  0.34850803  0.96954713  0.80166844    -0.57500
O350        O  0.33210224  0.59451224  0.78472198    -0.56700
C351        C  0.40710419  0.90696001  0.13869471     0.86400
C352        C  0.42166358  0.86303966  0.16667101    -0.53900
C353        C  0.43165397  0.87218898  0.21104372     0.09300
C354        C  0.42436029  0.92497845  0.22436321     0.20300
C355        C  0.36421221  0.92950268  0.16412368    -0.54600
C356        C  0.37302723  0.93875008  0.20901198     0.09400
C357        C  0.44728457  0.94385245  0.14704831    -0.54100
C358        C  0.45696489  0.95225412  0.19140683     0.10000
H359        H  0.42782910  0.82831626  0.15132967     0.14500
H360        H  0.43219335  0.93286491  0.26049353     0.00200
H361        H  0.33158099  0.94146681  0.14777079     0.14800
H362        H  0.46646370  0.96233504  0.12001300     0.14600
C363        C  0.14599936  0.64410569  0.14037027     0.86400
C364        C  0.12772645  0.68861105  0.16630712    -0.53900
C365        C  0.11614645  0.67997529  0.21073215     0.09300
C366        C  0.12565196  0.62811092  0.22612845     0.20300
C367        C  0.18926903  0.62843446  0.16909459    -0.54600
C368        C  0.17833372  0.61756177  0.21313377     0.09400
C369        C  0.10686012  0.60642682  0.14870057    -0.54100
C370        C  0.09620082  0.59834104  0.19305445     0.10000
H371        H  0.12299607  0.72371901  0.15129384     0.14500
H372        H  0.11670029  0.62062341  0.26221031     0.00200
H373        H  0.22530652  0.62495504  0.15601741     0.14800
H374        H  0.08900644  0.58735718  0.12146046     0.14600
C375        C  0.39780049  0.65513263  0.44142085     0.86400
C376        C  0.37453694  0.61297966  0.41580849    -0.53900
C377        C  0.36212561  0.62316701  0.37199765     0.09300
C378        C  0.37574224  0.67416422  0.35674526     0.20300
C379        C  0.44136511  0.66696453  0.41086870    -0.54600
C380        C  0.42963481  0.67956587  0.36737305     0.09400
C381        C  0.36234523  0.69674319  0.43500177    -0.54100
C382        C  0.35125326  0.70678837  0.39117148     0.10000
H383        H  0.36816970  0.57801508  0.43061437     0.14500
H384        H  0.36601752  0.68272420  0.32109726     0.00200
H385        H  0.47807360  0.66760958  0.42233517     0.14800
H386        H  0.34642612  0.71611496  0.46319318     0.14600
C387        C  0.15296851  0.88895998  0.43909278     0.86400
C388        C  0.17416991  0.93288642  0.41415860    -0.53900
C389        C  0.18449273  0.92517289  0.36929827     0.09300
C390        C  0.17208246  0.87417827  0.35308037     0.20300
C391        C  0.10900745  0.87539957  0.41077514    -0.54600
C392        C  0.11891271  0.86594048  0.36631901     0.09400
C393        C  0.19100285  0.85027483  0.43011079    -0.54100
C394        C  0.20026084  0.84173252  0.38555684     0.10000
H395        H  0.18426351  0.96589912  0.43059390     0.14500
H396        H  0.18054276  0.86748974  0.31681730     0.00200
H397        H  0.07377778  0.86954081  0.42582438     0.14800
H398        H  0.21042588  0.83200735  0.45702399     0.14600
O399        O  0.32262083  0.54845402  0.35816213    -0.57900
C400        C  0.21294756  0.95975513  0.34206658     0.74700
O401        O  0.25117043  0.57404174  0.22582262    -0.59100
C402        C  0.33404692  0.58963755  0.34393303     0.74700
C403        C  0.33930056  0.96676027  0.23754720     0.77100
Cd404      Cd  0.27431801  0.52551221  0.29157074     1.37500
O405        O  0.22956125  0.99763056  0.35926177    -0.57900
O406        O  0.34968400  0.97915179  0.27754786    -0.56700
C407        C  0.21142408  0.58881964  0.24137021     0.77000
O408        O  0.29898633  0.98081744  0.22279991    -0.59100
O409        O  0.22358510  0.95238387  0.30096760    -0.57600
O410        O  0.31879697  0.60108465  0.30503909    -0.57500
O411        O  0.20054364  0.57519834  0.28103836    -0.56700
O412        O  0.47463221  0.79877563  0.22240946    -0.57900
C413        C  0.08768884  0.71405345  0.23784663     0.74700
O414        O  0.04652883  0.82139735  0.35493997    -0.59100
C415        C  0.45921865  0.83766258  0.23886353     0.74700
C416        C  0.46247420  0.70866592  0.33891895     0.77100
Cd417      Cd  0.02303587  0.77481226  0.28836711     1.37500
O418        O  0.06751976  0.75001192  0.21993582    -0.57900
O419        O  0.45018222  0.72434124  0.30037016    -0.56700
C420        C  0.08476994  0.83861923  0.33820856     0.77000
O421        O  0.50286834  0.72250353  0.35344417    -0.59100
O422        O  0.07949399  0.70710277  0.27950635    -0.57600
O423        O  0.47155784  0.84678206  0.27916791    -0.57500
O424        O  0.09354234  0.82843659  0.29729124    -0.56700
C425        C  0.27146769  0.72952799  0.36249408    -0.05900
C426        C  0.31624855  0.74415728  0.37894414     0.00000
C427        C  0.32499143  0.79306946  0.38742933    -0.08500
C428        C  0.28648937  0.82517651  0.38423589    -0.05900
C429        C  0.24023556  0.80972364  0.37272525     0.00000
C430        C  0.23281608  0.76177456  0.35929120    -0.08400
C431        C  0.18430408  0.74446983  0.34299711     0.61900
H432        H  0.26621679  0.69202942  0.35502173     0.12600
H433        H  0.29139855  0.86204539  0.39435182     0.12600
C434        C  0.37340148  0.81116273  0.40338401     0.62200
F435        F  0.18557055  0.69687940  0.33027840    -0.23000
F436        F  0.17076851  0.77101756  0.30561607    -0.20300
F437        F  0.15034110  0.74948783  0.37696785    -0.20000
F438        F  0.41023893  0.78875758  0.38023206    -0.20100
F439        F  0.37809871  0.80252353  0.44932035    -0.20400
F440        F  0.37798235  0.85979649  0.39588113    -0.23000
C441        C  0.47812197  0.53487410  0.20997506    -0.05900
C442        C  0.49348035  0.98756356  0.20447582     0.00000
C443        C  0.04320528  0.97660650  0.20274322    -0.08500
C444        C  0.07625435  0.51426059  0.20444283    -0.05900
C445        C  0.06080143  0.56178173  0.20619118     0.00000
C446        C  0.01123773  0.57250560  0.21047480    -0.08400
C447        C  0.49344148  0.62377452  0.21427059     0.61900
H448        H  0.43982692  0.54206973  0.21109015     0.12600
H449        H  0.11442120  0.50724882  0.20087305     0.12600
C450        C  0.06112778  0.92578693  0.19706843     0.62200
F451        F  0.44372009  0.62645588  0.21377454    -0.23000
F452        F  0.01050032  0.65091574  0.17863012    -0.20300
F453        F  0.00929621  0.64242636  0.25478874    -0.20000
F454        F  0.04535440  0.90737737  0.15629579    -0.20100
F455        F  0.04397493  0.89799932  0.23225618    -0.20400
F456        F  0.11085213  0.92320162  0.19756557    -0.23000
C457        C  0.43451375  0.67262215  0.56758566    -0.05900
C458        C  0.40103348  0.64373121  0.59086327     0.00000
C459        C  0.36655028  0.61864446  0.56387458    -0.08500
C460        C  0.37107135  0.62038239  0.51624886    -0.05900
C461        C  0.40588869  0.64795404  0.49295982     0.00000
C462        C  0.43637018  0.67744726  0.52011715    -0.08400
C463        C  0.47062651  0.71561402  0.50158941     0.61900
H464        H  0.45783571  0.69539090  0.58683336     0.12600
H465        H  0.34415117  0.60195124  0.49657303     0.12600
C466        C  0.32383077  0.59038700  0.58315746     0.62200
F467        F  0.48290780  0.74875172  0.53436298    -0.23000
F468        F  0.45012768  0.74153391  0.46680119    -0.20300
F469        F  0.51279848  0.69427651  0.48722458    -0.20000
F470        F  0.30044319  0.61510163  0.61709809    -0.20100
F471        F  0.33936308  0.54667719  0.59932568    -0.20400
F472        F  0.28945751  0.58107872  0.55044832    -0.23000
C473        C  0.13757206  0.85760474  0.56544889    -0.05900
C474        C  0.14612752  0.90180349  0.58645881     0.00000
C475        C  0.14176794  0.94349873  0.55905884    -0.08500
C476        C  0.14219039  0.93821090  0.51139771    -0.05900
C477        C  0.14211294  0.89300584  0.49016263     0.00000
C478        C  0.13428285  0.85206810  0.51846618    -0.08400
C479        C  0.12501883  0.80073403  0.50334834     0.61900
H480        H  0.13527154  0.82577474  0.58650460     0.12600
H481        H  0.14102115  0.97019586  0.49089497     0.12600
C482        C  0.13146782  0.99301835  0.57747842     0.62200
F483        F  0.08506284  0.78333365  0.52608403    -0.23000
F484        F  0.16421364  0.77269722  0.51484248    -0.20300
F485        F  0.11630387  0.79516717  0.45781525    -0.20000
F486        F  0.17373683  0.01885494  0.57988859    -0.20100
F487        F  0.10936847  0.99103272  0.61949488    -0.20400
F488        F  0.09989207  0.51699119  0.54897969    -0.23000
C489        C  0.32941654  0.78567421  0.69423672    -0.05900
C490        C  0.31331801  0.73969153  0.70521089     0.00000
C491        C  0.26475068  0.73217918  0.71756937    -0.08500
C492        C  0.23268930  0.77100603  0.71523462    -0.05900
C493        C  0.24803093  0.81598638  0.70001226     0.00000
C494        C  0.29741788  0.82427431  0.69102616    -0.08400
C495        C  0.31629988  0.87329122  0.67759174     0.61900
H496        H  0.36693963  0.79030757  0.68520846     0.12600
H497        H  0.19481030  0.76586088  0.72247367     0.12600
C498        C  0.24683714  0.68317753  0.73154271     0.62200
F499        F  0.36585545  0.87337392  0.67273138    -0.23000
F500        F  0.30438475  0.90598702  0.71075641    -0.20300
F501        F  0.29677277  0.88776354  0.63674614    -0.20000
F502        F  0.27036916  0.66898878  0.77051109    -0.20100
F503        F  0.25574474  0.65055705  0.69743390    -0.20400
F504        F  0.19790982  0.68311822  0.74039170    -0.23000
C505        C  0.17919651  0.62021083  0.01411487    -0.05900
C506        C  0.15000271  0.65340065  0.99089446     0.00400
C507        C  0.11794260  0.68166844  0.01795144    -0.08500
C508        C  0.12352947  0.68121303  0.06543480    -0.05900
C509        C  0.15403821  0.64913581  0.08865896     0.00000
C510        C  0.17955853  0.61493562  0.06161286    -0.08400
C511        C  0.20627695  0.57114256  0.08017803     0.61900
H512        H  0.19949245  0.59476313  0.99448618     0.12600
H513        H  0.09983959  0.70367751  0.08488214     0.12600
C514        C  0.07512005  0.71021272  0.99958332     0.62200
F515        F  0.21198495  0.53629931  0.04732084    -0.23000
F516        F  0.18157270  0.54953070  0.11535078    -0.20300
F517        F  0.25177398  0.58416059  0.09413053    -0.20000
F518        F  0.05189229  0.68604301  0.96528449    -0.20100
F519        F  0.09019167  0.75456692  0.98455631    -0.20400
F520        F  0.04072370  0.71806569  0.03284787    -0.23000
C521        C  0.36556998  0.89246473  0.01380590    -0.05900
C522        C  0.41057851  0.89374335  0.99139084     0.00000
C523        C  0.45281921  0.88686572  0.01849884    -0.08500
C524        C  0.44797123  0.88751025  0.06573455    -0.05900
C525        C  0.40378112  0.89481080  0.08790647     0.00000
C526        C  0.36139968  0.89054769  0.06152022    -0.08400
C527        C  0.31235829  0.87828075  0.08103404     0.61900
H528        H  0.33285123  0.89119140  0.99431776     0.12600
H529        H  0.48033621  0.88465401  0.08606139     0.12600
C530        C  0.00502218  0.88215934  0.00204880     0.62200
F531        F  0.28985693  0.84495185  0.05378285    -0.23000
F532        F  0.28397040  0.91885561  0.08251992    -0.20300
F533        F  0.31566136  0.85798218  0.12373790    -0.20000
F534        F  0.03010909  0.92275270  0.01432864    -0.20100
F535        F  0.01104958  0.87582241  0.95618330    -0.20400
F536        F  0.02613491  0.84316907  0.02313758    -0.23000
C537        C  0.01660257  0.57411184  0.87108312    -0.05900
C538        C  0.06477907  0.55986684  0.87278778     0.00000
C539        C  0.07687241  0.51078523  0.86990333    -0.08500
C540        C  0.03975134  0.97695326  0.87049901    -0.05900
C541        C  0.49172648  0.99120294  0.87244061     0.00000
C542        C  0.47999823  0.54015565  0.86941031    -0.08400
C543        C  0.42825312  0.55657130  0.86607671     0.61900
H544        H  0.00841098  0.61192923  0.87258869     0.12600
H545        H  0.04788331  0.93908836  0.87157704     0.12600
C546        C  0.12878901  0.99411111  0.86704251     0.62200
F547        F  0.42445734  0.60587949  0.86468993    -0.23000
F548        F  0.40205076  0.54020563  0.90289625    -0.20300
F549        F  0.40882975  0.53882428  0.82662240    -0.20000
F550        F  0.15524076  0.01116597  0.90316283    -0.20100
F551        F  0.14764688  0.51120518  0.82615012    -0.20400
F552        F  0.13252489  0.94476969  0.86696050    -0.23000
C553        C  0.91312791  0.40430601  0.94025721     0.86400
C554        C  0.86728908  0.42068963  0.91483242    -0.53900
C555        C  0.87485460  0.43085217  0.86979758     0.09300
C556        C  0.92733925  0.42321867  0.85412386     0.20300
C557        C  0.93104234  0.36156652  0.91253827    -0.54600
C558        C  0.94055811  0.37172238  0.86812872     0.09400
C559        C  0.94833504  0.44546588  0.93089513    -0.54100
C560        C  0.95614674  0.45487022  0.88628331     0.10000
H561        H  0.83317814  0.42851415  0.93096355     0.14500
H562        H  0.93415457  0.43154504  0.81779977     0.00200
H563        H  0.93937594  0.32721117  0.92794347     0.14800
H564        H  0.96619350  0.46543808  0.95750488     0.14600
C565        C  0.64537491  0.14594840  0.93927344     0.86400
C566        C  0.69061073  0.12762696  0.91391220    -0.53900
C567        C  0.68272312  0.11615401  0.86944201     0.09300
C568        C  0.63083545  0.12576604  0.85348877     0.20300
C569        C  0.63041406  0.18894412  0.91012057    -0.54600
C570        C  0.62021863  0.17819719  0.86607672     0.09400
C571        C  0.60735336  0.10723096  0.93080935    -0.54100
C572        C  0.60030869  0.09635480  0.88643570     0.10000
H573        H  0.72548310  0.12251784  0.92963641     0.14500
H574        H  0.62395038  0.11692811  0.81738488     0.00200
H575        H  0.62738967  0.22485956  0.92266250     0.14800
H576        H  0.58782410  0.08936507  0.95798732     0.14600
C577        C  0.65948180  0.39837009  0.63711860     0.86400
C578        C  0.61700628  0.37919615  0.66493111    -0.53900
C579        C  0.62761989  0.36752770  0.70862807     0.09300
C580        C  0.67996536  0.37872081  0.72201049     0.20300
C581        C  0.67870609  0.44151750  0.66410224    -0.54600
C582        C  0.68887032  0.43132589  0.70869723     0.09400
C583        C  0.69981154  0.36104599  0.64381544    -0.54100
C584        C  0.71071359  0.35123612  0.68779430     0.10000
H585        H  0.58220536  0.37174950  0.64985521     0.14500
H586        H  0.68883932  0.36980032  0.75777735     0.00200
H587        H  0.68874050  0.47531220  0.64905398     0.14800
H588        H  0.71822754  0.34348492  0.61588274     0.14600
C589        C  0.89528102  0.15224314  0.64248231     0.86400
C590        C  0.93881155  0.17323185  0.66827149    -0.53900
C591        C  0.92937321  0.18561324  0.71217702     0.09300
C592        C  0.87776804  0.17325557  0.72777392     0.20300
C593        C  0.88213280  0.10905872  0.67203578    -0.54600
C594        C  0.87074979  0.11995757  0.71588889     0.09400
C595        C  0.85514489  0.18910223  0.64983103    -0.54100
C596        C  0.84581189  0.19983257  0.69389037     0.10000
H597        H  0.97437540  0.17826668  0.65394257     0.14500
H598        H  0.86987703  0.18247917  0.76364537     0.00200
H599        H  0.88115303  0.07288069  0.65980605     0.14800
H600        H  0.83656512  0.20675671  0.62199756     0.14600
O601        O  0.55470618  0.32347463  0.72056998    -0.57900
C602        C  0.96376614  0.21455999  0.73868607     0.74700
O603        O  0.57691041  0.25080951  0.85327784    -0.59100
C604        C  0.59431982  0.33819787  0.73633508     0.74700
C605        C  0.96922783  0.33889255  0.83958137     0.77100
Cd606      Cd  0.53035153  0.27580247  0.78712832     1.37500
O607        O  0.00365272  0.22778417  0.72206709    -0.57900
O608        O  0.98307687  0.35021427  0.80008902    -0.56700
C609        C  0.59250864  0.21178337  0.83743132     0.77000
O610        O  0.98309372  0.29864532  0.85431261    -0.59100
O611        O  0.95430937  0.22915411  0.77821101    -0.57600
O612        O  0.60456329  0.32471502  0.77611465    -0.57500
O613        O  0.58061008  0.20219530  0.79712115    -0.56700
O614        O  0.80162482  0.47509040  0.85959687    -0.57900
C615        C  0.71726247  0.08768451  0.84269696     0.74700
O616        O  0.82726852  0.04748414  0.72750366    -0.59100
C617        C  0.83992677  0.45843144  0.84254159     0.74700
C618        C  0.71635083  0.46413667  0.73806414     0.77100
Cd619      Cd  0.77881648  0.02337513  0.79261671     1.37500
O620        O  0.75357458  0.06811463  0.86074052    -0.57900
O621        O  0.72575695  0.45383204  0.77890196    -0.56700
C622        C  0.84339363  0.08582920  0.74412861     0.77000
O623        O  0.73396667  0.50273083  0.72307005    -0.59100
O624        O  0.71022415  0.07878083  0.80124787    -0.57600
O625        O  0.84853279  0.46960133  0.80174307    -0.57500
O626        O  0.83192007  0.09454681  0.78475467    -0.56700
C627        C  0.90706658  0.40682434  0.13871135     0.86400
C628        C  0.92158740  0.36291472  0.16672121    -0.53900
C629        C  0.93157851  0.37209666  0.21108902     0.09300
C630        C  0.92432225  0.42489846  0.22436675     0.20300
C631        C  0.86418063  0.42941937  0.16411706    -0.54600
C632        C  0.87300133  0.43869706  0.20900258     0.09400
C633        C  0.94726456  0.44369542  0.14704553    -0.54100
C634        C  0.95695502  0.45211201  0.19139423     0.10000
H635        H  0.92774652  0.32817943  0.15140249     0.14500
H636        H  0.93215940  0.43280879  0.26049147     0.00200
H637        H  0.83154508  0.44136220  0.14774669     0.14800
H638        H  0.96645064  0.46215903  0.12000207     0.14600
C639        C  0.64611839  0.14412354  0.14045578     0.86400
C640        C  0.62789515  0.18864654  0.16639479    -0.53900
C641        C  0.61630445  0.18002364  0.21081982     0.09300
C642        C  0.62576645  0.12815235  0.22621815     0.20300
C643        C  0.68937440  0.12840640  0.16917509    -0.54600
C644        C  0.67843591  0.11754343  0.21321520     0.09400
C645        C  0.60694426  0.10648021  0.14879092    -0.54100
C646        C  0.59627211  0.09841892  0.19314874     0.10000
H647        H  0.62316995  0.22374758  0.15136268     0.14500
H648        H  0.61681286  0.12067478  0.26230186     0.00200
H649        H  0.72540712  0.12489816  0.15610108     0.14800
H650        H  0.58907024  0.08742517  0.12155224     0.14600
C651        C  0.89792837  0.15505021  0.44149290     0.86400
C652        C  0.87470928  0.11289696  0.41584346    -0.53900
C653        C  0.86223575  0.12312534  0.37205591     0.09300
C654        C  0.87574834  0.17417140  0.35685936     0.20300
C655        C  0.94143690  0.16698414  0.41091387    -0.54600
C656        C  0.92964514  0.17962935  0.36744945     0.09400
C657        C  0.86240093  0.19661764  0.43515677    -0.54100
C658        C  0.85123676  0.20670762  0.39135171     0.10000
H659        H  0.86841787  0.07789920  0.43061121     0.14500
H660        H  0.86597680  0.18276891  0.32123070     0.00200
H661        H  0.97816455  0.16760814  0.42231250     0.14800
H662        H  0.84647330  0.21591680  0.46338899     0.14600
C663        C  0.65282957  0.38899461  0.43915888     0.86400
C664        C  0.67414020  0.43287742  0.41424154    -0.53900
C665        C  0.68452597  0.42512875  0.36939870     0.09300
C666        C  0.67207056  0.37413761  0.35318444     0.20300
C667        C  0.60889454  0.37550029  0.41077776    -0.54600
C668        C  0.61886492  0.36598607  0.36634501     0.09400
C669        C  0.69081343  0.35023727  0.43025017    -0.54100
C670        C  0.70013561  0.34165531  0.38571833     0.10000
H671        H  0.68422280  0.46589395  0.43067707     0.14500
H672        H  0.68058100  0.36741415  0.31693658     0.00200
H673        H  0.57362724  0.36971296  0.42577331     0.14800
H674        H  0.71017696  0.33196455  0.45719685     0.14600
O675        O  0.82294045  0.04831888  0.35812618    -0.57900
C676        C  0.71299640  0.45970277  0.34216453     0.74700
O677        O  0.75118766  0.07386334  0.22584539    -0.59100
C678        C  0.83418323  0.08958366  0.34397812     0.74700
C679        C  0.83929766  0.46672704  0.23754668     0.77100
Cd680      Cd  0.77440879  0.02545450  0.29164536     1.37500
O681        O  0.72948349  0.49765807  0.35931090    -0.57900
O682        O  0.84970488  0.47910577  0.27754670    -0.56700
C683        C  0.71151379  0.08877347  0.24144492     0.77000
O684        O  0.79898397  0.48080721  0.22281745    -0.59100
O685        O  0.72376184  0.45225461  0.30110893    -0.57600
O686        O  0.81875762  0.10110129  0.30516531    -0.57500
O687        O  0.70069514  0.07526763  0.28116390    -0.56700
O688        O  0.97453122  0.29868379  0.22250345    -0.57900
C689        C  0.58779662  0.21409080  0.23790175     0.74700
O690        O  0.54653834  0.32135928  0.35495892    -0.59100
C691        C  0.95917269  0.33760892  0.23891906     0.74700
C692        C  0.96246770  0.20872018  0.33897851     0.77100
Cd693      Cd  0.52304786  0.27481798  0.28836816     1.37500
O694        O  0.56757822  0.25000337  0.21995841    -0.57900
O695        O  0.95014441  0.22442213  0.30045004    -0.56700
C696        C  0.58475005  0.33864224  0.33822484     0.77000
O697        O  0.00289086  0.22251334  0.35347195    -0.59100
O698        O  0.57959710  0.20716539  0.27956369    -0.57600
O699        O  0.97160475  0.34680593  0.27918224    -0.57500
O700        O  0.59351739  0.32850398  0.29729633    -0.56700
C701        C  0.77131304  0.22934767  0.36290107    -0.05900
C702        C  0.81613573  0.24403130  0.37921189     0.00000
C703        C  0.82487044  0.29296520  0.38759926    -0.08500
C704        C  0.78636345  0.32506826  0.38435429    -0.05900
C705        C  0.74008897  0.30957819  0.37296613     0.00000
C706        C  0.73264093  0.26157647  0.35971180    -0.08400
C707        C  0.68407468  0.24420339  0.34362605     0.61900
H708        H  0.76605564  0.19182992  0.35552351     0.12600
H709        H  0.79128056  0.36197280  0.39434551     0.12600
C710        C  0.87331885  0.31108216  0.40342740     0.62200
F711        F  0.68532977  0.19659660  0.33096190    -0.23000
F712        F  0.67034682  0.27068628  0.30626873    -0.20300
F713        F  0.65025708  0.24923989  0.37772247    -0.20000
F714        F  0.91006610  0.28892671  0.37993343    -0.20100
F715        F  0.87830927  0.30212026  0.44927922    -0.20400
F716        F  0.87774611  0.35978071  0.39623581    -0.23000
C717        C  0.97816248  0.03467577  0.21014521    -0.05900
C718        C  0.99349546  0.48739908  0.20443114     0.00000
C719        C  0.54314080  0.47673604  0.20291042    -0.08500
C720        C  0.57625539  0.01438021  0.20466892    -0.05900
C721        C  0.56082623  0.06190931  0.20629741     0.00000
C722        C  0.51126269  0.07266856  0.21049518    -0.08400
C723        C  0.99339157  0.12359252  0.21431248     0.61900
H724        H  0.93986475  0.04183544  0.21137175     0.12600
H725        H  0.61442764  0.00734082  0.20121188     0.12600
C726        C  0.56104433  0.42587858  0.19753377     0.62200
F727        F  0.94366688  0.12621824  0.21383941    -0.23000
F728        F  0.51059702  0.15113535  0.17877276    -0.20300
F729        F  0.50939604  0.14250525  0.25491731    -0.20000
F730        F  0.54525857  0.40719981  0.15687626    -0.20100
F731        F  0.54388173  0.39834484  0.23289547    -0.20400
F732        F  0.61076828  0.42327865  0.19804652    -0.23000
C733        C  0.93448833  0.17260709  0.56767964    -0.05900
C734        C  0.90103304  0.14366164  0.59092697     0.00000
C735        C  0.86665188  0.11848773  0.56390489    -0.08500
C736        C  0.87123677  0.12021760  0.51628562    -0.05900
C737        C  0.90605612  0.14781421  0.49302316     0.00000
C738        C  0.93649872  0.17732774  0.52020750    -0.08400
C739        C  0.97091901  0.21535350  0.50168445     0.61900
H740        H  0.95769353  0.19547496  0.58696266     0.12600
H741        H  0.84435803  0.10174695  0.49658509     0.12600
C742        C  0.82397251  0.09014917  0.58314899     0.62200
F743        F  0.98345298  0.24838372  0.53446944    -0.23000
F744        F  0.95047482  0.24141860  0.46696158    -0.20300
F745        F  0.01295898  0.19382386  0.48723386    -0.20000
F746        F  0.80049908  0.11482541  0.61706397    -0.20100
F747        F  0.83958392  0.04647489  0.59933652    -0.20400
F748        F  0.78965604  0.08076275  0.55040782    -0.23000
C749        C  0.63743713  0.35765110  0.56548959    -0.05900
C750        C  0.64603287  0.40184087  0.58649730     0.00000
C751        C  0.64164944  0.44354638  0.55911647    -0.08500
C752        C  0.64203191  0.43827304  0.51145194    -0.05900
C753        C  0.64190816  0.39306903  0.49021370     0.00000
C754        C  0.63405181  0.35213591  0.51851539    -0.08400
C755        C  0.62471392  0.30082044  0.50338787     0.61900
H756        H  0.63516165  0.32581383  0.58653831     0.12600
H757        H  0.64088167  0.47026120  0.49094935     0.12600
C758        C  0.63134038  0.49304614  0.57757904     0.62200
F759        F  0.58487089  0.28338204  0.52627764    -0.23000
F760        F  0.66396723  0.27277156  0.51467208    -0.20300
F761        F  0.61576514  0.29532866  0.45788871    -0.20000
F762        F  0.67360836  0.51887431  0.58007064    -0.20100
F763        F  0.60918892  0.49099838  0.61957086    -0.20400
F764        F  0.60006175  0.01715812  0.54905201    -0.23000
C765        C  0.82932448  0.28557432  0.69428950    -0.05900
C766        C  0.81317530  0.23959803  0.70521570     0.00000
C767        C  0.76458198  0.23211407  0.71750669    -0.08500
C768        C  0.73255995  0.27097104  0.71516572    -0.05900
C769        C  0.74795562  0.31594337  0.69997559     0.00000
C770        C  0.79735658  0.32419361  0.69103503    -0.08400
C771        C  0.81627787  0.37317726  0.67755040     0.61900
H772        H  0.86686348  0.29018339  0.68530315     0.12600
H773        H  0.69466789  0.26585756  0.72236993     0.12600
C774        C  0.74659552  0.18311869  0.73141734     0.62200
F775        F  0.86584897  0.37325117  0.67283405    -0.23000
F776        F  0.80425380  0.40596152  0.71060112    -0.20300
F777        F  0.79687571  0.38753072  0.63661381    -0.20000
F778        F  0.77005239  0.16886751  0.77040518    -0.20100
F779        F  0.75551710  0.15052027  0.69729266    -0.20400
F780        F  0.69765406  0.18310528  0.74020295    -0.23000
C781        C  0.67946713  0.12047495  0.01417632    -0.05900
C782        C  0.65017988  0.15360166  0.99097514     0.00400
C783        C  0.61801278  0.18173446  0.01805339    -0.08500
C784        C  0.62353844  0.18119304  0.06554388    -0.05900
C785        C  0.65414251  0.14918893  0.08874358     0.00000
C786        C  0.67977509  0.11510285  0.06166599    -0.08400
C787        C  0.70650047  0.07129085  0.08017389     0.61900
H788        H  0.69986174  0.09511599  0.99453838     0.12600
H789        H  0.59975784  0.20353955  0.08502121     0.12600
C790        C  0.57519388  0.21028269  0.99968280     0.62200
F791        F  0.71222194  0.03650305  0.04726491    -0.23000
F792        F  0.68178239  0.04962037  0.11530664    -0.20300
F793        F  0.75199248  0.08429474  0.09415514    -0.20000
F794        F  0.55198111  0.18612733  0.96536620    -0.20100
F795        F  0.59027691  0.25464078  0.98467781    -0.20400
F796        F  0.54078076  0.21812885  0.03293360    -0.23000
C797        C  0.86554251  0.39237465  0.01383432    -0.05900
C798        C  0.91054941  0.39369158  0.99140980     0.00000
C799        C  0.95279696  0.38680713  0.01850771    -0.08500
C800        C  0.94795206  0.38738258  0.06574594    -0.05900
C801        C  0.90376281  0.39465662  0.08792746     0.00000
C802        C  0.86138638  0.39038907  0.06154839    -0.08400
C803        C  0.81238352  0.37798602  0.08106547     0.61900
H804        H  0.83281714  0.39108733  0.99435593     0.12600
H805        H  0.98031729  0.38450479  0.08606780     0.12600
C806        C  0.50493887  0.38210042  0.00204814     0.62200
F807        F  0.79003973  0.34450820  0.05386447    -0.23000
F808        F  0.78384353  0.41845859  0.08245806    -0.20300
F809        F  0.81572524  0.35779923  0.12381375    -0.20000
F810        F  0.53006606  0.42270080  0.01423116    -0.20100
F811        F  0.51095187  0.37563705  0.95619838    -0.20400
F812        F  0.52601705  0.34314312  0.02322350    -0.23000
C813        C  0.51697525  0.07402142  0.87051168    -0.05900
C814        C  0.56510888  0.05977472  0.87300616     0.00000
C815        C  0.57721622  0.01064728  0.87095110    -0.08500
C816        C  0.54016640  0.47682474  0.87171401    -0.05900
C817        C  0.99142528  0.49126730  0.87231870     0.00000
C818        C  0.97953140  0.04027828  0.87025687    -0.08400
C819        C  0.92771928  0.05670700  0.86790521     0.61900
H820        H  0.50879403  0.11186359  0.87144124     0.12600
H821        H  0.54825425  0.43898143  0.87353390     0.12600
C822        C  0.62926760  0.49385967  0.86933634     0.62200
F823        F  0.92388250  0.10602393  0.86725686    -0.23000
F824        F  0.90210736  0.03976433  0.90485718    -0.20300
F825        F  0.90765223  0.03956126  0.82849747    -0.20000
F826        F  0.65524025  0.51178361  0.90538140    -0.20100
F827        F  0.64857113  0.01012912  0.82801730    -0.20400
F828        F  0.63295910  0.44452361  0.87042093    -0.23000
C829        C  0.91320805  0.90427711  0.94021309     0.86400
C830        C  0.86735879  0.92064191  0.91480077    -0.53900
C831        C  0.87490850  0.93082235  0.86976825     0.09300
C832        C  0.92739850  0.92322302  0.85408186     0.20300
C833        C  0.93114316  0.86155469  0.91247959    -0.54600
C834        C  0.94064524  0.87172754  0.86806889     0.09400
C835        C  0.94839135  0.94545681  0.93085707    -0.54100
C836        C  0.95620697  0.95487087  0.88624925     0.10000
H837        H  0.83324537  0.92843610  0.93094078     0.14500
H838        H  0.93420444  0.93156404  0.81775869     0.00200
H839        H  0.93949305  0.82719826  0.92787403     0.14800
H840        H  0.96625335  0.96542295  0.95747012     0.14600
C841        C  0.64548315  0.64602130  0.93927294     0.86400
C842        C  0.69071323  0.62770104  0.91389753    -0.53900
C843        C  0.68280232  0.61621385  0.86943193     0.09300
C844        C  0.63090833  0.62581626  0.85350015     0.20300
C845        C  0.63050661  0.68900810  0.91011763    -0.54600
C846        C  0.62028767  0.67824695  0.86608273     0.09400
C847        C  0.60746573  0.60729212  0.93083087    -0.54100
C848        C  0.60041578  0.59639673  0.88646332     0.10000
H849        H  0.72558998  0.62258875  0.92961303     0.14500
H850        H  0.62400875  0.61696717  0.81740132     0.00200
H851        H  0.62747217  0.72492377  0.92265762     0.14800
H852        H  0.58797428  0.58940388  0.95801989     0.14600
C853        C  0.65947120  0.89832109  0.63715153     0.86400
C854        C  0.61698465  0.87915309  0.66495325    -0.53900
C855        C  0.62757871  0.86751410  0.70866182     0.09300
C856        C  0.67991486  0.87871921  0.72206247     0.20300
C857        C  0.67867532  0.94148657  0.66412610    -0.54600
C858        C  0.68881626  0.93131761  0.70873160     0.09400
C859        C  0.69980519  0.86100988  0.64388513    -0.54100
C860        C  0.71068762  0.85122505  0.68787262     0.10000
H861        H  0.58219381  0.87169070  0.64986567     0.14500
H862        H  0.68877274  0.86981841  0.75783617     0.00200
H863        H  0.68871746  0.97527335  0.64906704     0.14800
H864        H  0.71824590  0.84344521  0.61596981     0.14600
C865        C  0.89525367  0.65235317  0.64240531     0.86400
C866        C  0.93881725  0.67328873  0.66818145    -0.53900
C867        C  0.92942102  0.68563282  0.71210505     0.09300
C868        C  0.87782065  0.67328210  0.72772745     0.20300
C869        C  0.88209994  0.60914174  0.67192448    -0.54600
C870        C  0.87076009  0.62000021  0.71579683     0.09400
C871        C  0.85514442  0.68922612  0.64981564    -0.54100
C872        C  0.84584967  0.69991001  0.69389318     0.10000
H873        H  0.97436302  0.67833592  0.65381614     0.14500
H874        H  0.86996323  0.68247283  0.76361275     0.00200
H875        H  0.88107624  0.57298067  0.65965525     0.14800
H876        H  0.83654854  0.70691482  0.62201211     0.14600
O877        O  0.55464611  0.82349961  0.72062599    -0.57900
C878        C  0.96383395  0.71457303  0.73860272     0.74700
O879        O  0.57694395  0.75083728  0.85330048    -0.59100
C880        C  0.59427393  0.83820217  0.73637671     0.74700
C881        C  0.96931905  0.83891303  0.83950454     0.77100
Cd882      Cd  0.53033893  0.77579877  0.78718038     1.37500
O883        O  0.00371447  0.72779702  0.72196979    -0.57900
O884        O  0.98311310  0.85022341  0.79999135    -0.56700
C885        C  0.59254622  0.71181499  0.83744939     0.77000
O886        O  0.98324045  0.79868767  0.85424085    -0.59100
O887        O  0.95439607  0.72917003  0.77813044    -0.57600
O888        O  0.60453364  0.82470777  0.77614884    -0.57500
O889        O  0.58062379  0.70221311  0.79714838    -0.56700
O890        O  0.80167051  0.97506067  0.85962606    -0.57900
C891        C  0.71731048  0.58772192  0.84267449     0.74700
O892        O  0.82728938  0.54751077  0.72741803    -0.59100
C893        C  0.83994455  0.95838119  0.84253308     0.74700
C894        C  0.71629488  0.96412994  0.73809708     0.77100
Cd895      Cd  0.77884920  0.52341699  0.79257217     1.37500
O896        O  0.75371942  0.56827909  0.86066597    -0.57900
O897        O  0.72558948  0.95388466  0.77897138    -0.56700
C898        C  0.84341157  0.58586150  0.74403526     0.77000
O899        O  0.73402888  0.00265498  0.72306922    -0.59100
O900        O  0.71015064  0.57867069  0.80127306    -0.57600
O901        O  0.84848835  0.96951427  0.80171528    -0.57500
O902        O  0.83193954  0.59458211  0.78465986    -0.56700
C903        C  0.90712211  0.90688942  0.13866671     0.86400
C904        C  0.92161095  0.86296429  0.16666408    -0.53900
C905        C  0.93157450  0.87212083  0.21103957     0.09300
C906        C  0.92432773  0.92491793  0.22433865     0.20300
C907        C  0.86422437  0.92948944  0.16405864    -0.54600
C908        C  0.87302070  0.93874151  0.20895583     0.09400
C909        C  0.94732428  0.94374568  0.14703831    -0.54100
C910        C  0.95698711  0.95213956  0.19139616     0.10000
H911        H  0.92777309  0.82823475  0.15133259     0.14500
H912        H  0.93214681  0.93280644  0.26047080     0.00200
H913        H  0.83159725  0.94143756  0.14767285     0.14800
H914        H  0.96652625  0.96222424  0.12001390     0.14600
C915        C  0.64614868  0.64415312  0.14044685     0.86400
C916        C  0.62792348  0.68866757  0.16640139    -0.53900
C917        C  0.61631617  0.68002213  0.21081989     0.09300
C918        C  0.62576454  0.62814353  0.22619608     0.20300
C919        C  0.68938980  0.62841632  0.16917071    -0.54600
C920        C  0.67843633  0.61753395  0.21320086     0.09400
C921        C  0.60696111  0.60651428  0.14875335    -0.54100
C922        C  0.59626825  0.59843833  0.19310538     0.10000
H923        H  0.62320516  0.72377653  0.15138470     0.14500
H924        H  0.61680012  0.62064886  0.26227293     0.00200
H925        H  0.72542934  0.62491691  0.15610585     0.14800
H926        H  0.58909020  0.58747878  0.12150087     0.14600
C927        C  0.89797486  0.65507897  0.44140259     0.86400
C928        C  0.87476260  0.61290698  0.41577299    -0.53900
C929        C  0.86230759  0.62310533  0.37197594     0.09300
C930        C  0.87584035  0.67413027  0.35674624     0.20300
C931        C  0.94150291  0.66698546  0.41083745    -0.54600
C932        C  0.92973080  0.67959225  0.36735581     0.09400
C933        C  0.86246170  0.69664920  0.43501805    -0.54100
C934        C  0.85132267  0.70669878  0.39120067     0.10000
H935        H  0.86845922  0.57791914  0.43055670     0.14500
H936        H  0.86608660  0.68269915  0.32110708     0.00200
H937        H  0.97822175  0.66764854  0.42226736     0.14800
H938        H  0.84654193  0.71599511  0.46322424     0.14600
C939        C  0.65290064  0.88887699  0.43917599     0.86400
C940        C  0.67416596  0.93278210  0.41425330    -0.53900
C941        C  0.68453493  0.92505378  0.36940370     0.09300
C942        C  0.67210187  0.87405771  0.35318750     0.20300
C943        C  0.60896142  0.87534843  0.41081906    -0.54600
C944        C  0.61890883  0.86586437  0.36637681     0.09400
C945        C  0.69090916  0.85015250  0.43024175    -0.54100
C946        C  0.70021151  0.84158843  0.38570102     0.10000
H947        H  0.68424603  0.96579741  0.43069192     0.14500
H948        H  0.68059550  0.86735098  0.31693349     0.00200
H949        H  0.57370926  0.86952693  0.42583429     0.14800
H950        H  0.71029327  0.83188249  0.45717733     0.14600
O951        O  0.82291821  0.54833874  0.35811171    -0.57900
C952        C  0.71299435  0.95964764  0.34217176     0.74700
O953        O  0.75116904  0.57382545  0.22581618    -0.59100
C954        C  0.83422844  0.58956908  0.34392135     0.74700
C955        C  0.83930953  0.96675451  0.23751271     0.77100
Cd956      Cd  0.77441208  0.52546625  0.29163071     1.37500
O957        O  0.72948933  0.99759418  0.35932900    -0.57900
O958        O  0.84970610  0.97909908  0.27752545    -0.56700
C959        C  0.71151372  0.58876778  0.24143027     0.77000
O960        O  0.79900042  0.98085136  0.22278760    -0.59100
O961        O  0.72374590  0.95222622  0.30110819    -0.57600
O962        O  0.81884243  0.60106341  0.30508784    -0.57500
O963        O  0.70071560  0.57530255  0.28116578    -0.56700
O964        O  0.97456850  0.79872741  0.22241569    -0.57900
C965        C  0.58779189  0.71406738  0.23790941     0.74700
O966        O  0.54655697  0.82127699  0.35499130    -0.59100
C967        C  0.95915775  0.83762003  0.23885878     0.74700
C968        C  0.96253185  0.70871530  0.33889666     0.77100
Cd969      Cd  0.52303416  0.77476850  0.28839225     1.37500
O970        O  0.56756387  0.74997894  0.21997521    -0.57900
O971        O  0.95017900  0.72444803  0.30038758    -0.56700
C972        C  0.58477584  0.83854387  0.33825603     0.77000
O973        O  0.00295674  0.72251043  0.35338373    -0.59100
O974        O  0.57958524  0.70712066  0.27956756    -0.57600
O975        O  0.97153490  0.84678185  0.27914315    -0.57500
O976        O  0.59352906  0.82841557  0.29732324    -0.56700
C977        C  0.77147172  0.72938162  0.36263524    -0.05900
C978        C  0.81627092  0.74404303  0.37901724     0.00000
C979        C  0.82497833  0.79295707  0.38752555    -0.08500
C980        C  0.78644417  0.82503372  0.38439416    -0.05900
C981        C  0.74018922  0.80955625  0.37291805     0.00000
C982        C  0.73278185  0.76159444  0.35951081    -0.08400
C983        C  0.68423763  0.74423020  0.34335745     0.61900
H984        H  0.76623763  0.69187844  0.35517133     0.12600
H985        H  0.79134171  0.86190353  0.39451383     0.12600
C986        C  0.87337696  0.81108589  0.40347615     0.62200
F987        F  0.68553339  0.69665660  0.33058411    -0.23000
F988        F  0.67051581  0.77079605  0.30605167    -0.20300
F989        F  0.65039555  0.74915582  0.37744811    -0.20000
F990        F  0.91024260  0.78862584  0.38041440    -0.20100
F991        F  0.87803015  0.80256432  0.44943778    -0.20400
F992        F  0.87795983  0.85969949  0.39585439    -0.23000
C993        C  0.97816024  0.53464529  0.21013512    -0.05900
C994        C  0.99350928  0.98742952  0.20446672     0.00000
C995        C  0.54317422  0.97670459  0.20290621    -0.08500
C996        C  0.57622354  0.51441155  0.20466029    -0.05900
C997        C  0.56079783  0.56194333  0.20623553     0.00000
C998        C  0.51123015  0.57271077  0.21038531    -0.08400
C999        C  0.99340778  0.62355662  0.21434542     0.61900
H1000       H  0.93986356  0.54180999  0.21139171     0.12600
H1001       H  0.61439821  0.50736594  0.20123874     0.12600
C1002       C  0.56107689  0.92585223  0.19747872     0.62200
F1003       F  0.94368355  0.62619164  0.21390458    -0.23000
F1004       F  0.51061363  0.65115473  0.17860480    -0.20300
F1005       F  0.50928926  0.64258712  0.25475327    -0.20000
F1006       F  0.54528914  0.90721802  0.15680359    -0.20100
F1007       F  0.54391664  0.89827877  0.23281352    -0.20400
F1008       F  0.61080061  0.92325084  0.19798725    -0.23000
C1009       C  0.93438776  0.67282421  0.56759653    -0.05900
C1010       C  0.90097849  0.64382295  0.59084239     0.00000
C1011       C  0.86662288  0.61861947  0.56381918    -0.08500
C1012       C  0.87126388  0.62028182  0.51620427    -0.05900
C1013       C  0.90606857  0.64789755  0.49294228     0.00000
C1014       C  0.93642955  0.67749954  0.52012067    -0.08400
C1015       C  0.97079335  0.71556671  0.50158013     0.61900
H1016       H  0.95752497  0.69576185  0.58688452     0.12600
H1017       H  0.84442558  0.60175107  0.49650799     0.12600
C1018       C  0.82389240  0.59034393  0.58304625     0.62200
F1019       F  0.98323643  0.74865883  0.53433956    -0.23000
F1020       F  0.95033147  0.74155161  0.46681143    -0.20300
F1021       F  0.01288477  0.69409708  0.48718263    -0.20000
F1022       F  0.80046549  0.61502993  0.61698314    -0.20100
F1023       F  0.83941978  0.54662407  0.59919549    -0.20400
F1024       F  0.78955473  0.58106339  0.55029655    -0.23000
C1025       C  0.63749655  0.85755482  0.56552304    -0.05900
C1026       C  0.64605247  0.90175961  0.58651978     0.00000
C1027       C  0.64166118  0.94344967  0.55911934    -0.08500
C1028       C  0.64206603  0.93815532  0.51145817    -0.05900
C1029       C  0.64199417  0.89294431  0.49023431     0.00000
C1030       C  0.63415933  0.85201478  0.51854654    -0.08400
C1031       C  0.62484458  0.80068792  0.50343915     0.61900
H1032       H  0.63521603  0.82572749  0.58658312     0.12600
H1033       H  0.64089212  0.97013429  0.49094525     0.12600
C1034       C  0.63134481  0.99295945  0.57755299     0.62200
F1035       F  0.58492391  0.78329893  0.52624031    -0.23000
F1036       F  0.66404795  0.77263025  0.51486010    -0.20300
F1037       F  0.61603665  0.79514402  0.45791993    -0.20000
F1038       F  0.67361344  0.01878717  0.58003758    -0.20100
F1039       F  0.60918364  0.99093847  0.61954084    -0.20400
F1040       F  0.60005044  0.51726129  0.54909777    -0.23000
C1041       C  0.82933587  0.78564157  0.69435765    -0.05900
C1042       C  0.81321530  0.73965632  0.70528306     0.00000
C1043       C  0.76463658  0.73214984  0.71761562    -0.08500
C1044       C  0.73259090  0.77098913  0.71528566    -0.05900
C1045       C  0.74795365  0.81596698  0.70007969     0.00000
C1046       C  0.79734767  0.82424491  0.69112589    -0.08400
C1047       C  0.81624202  0.87323990  0.67764575     0.61900
H1048       H  0.86686490  0.79026873  0.68534598     0.12600
H1049       H  0.69470611  0.76585627  0.72251037     0.12600
C1050       C  0.74669164  0.68315277  0.73157053     0.62200
F1051       F  0.86581428  0.87334317  0.67294039    -0.23000
F1052       F  0.80419230  0.90601536  0.71069554    -0.20300
F1053       F  0.79684088  0.88758344  0.63670579    -0.20000
F1054       F  0.77015702  0.66896808  0.77057566    -0.20100
F1055       F  0.75564374  0.65052209  0.69748021    -0.20400
F1056       F  0.69774960  0.68310590  0.74035236    -0.23000
C1057       C  0.67957518  0.62055276  0.01417532    -0.05900
C1058       C  0.65029485  0.65368376  0.99097208     0.00400
C1059       C  0.61812453  0.68181689  0.01804765    -0.08500
C1060       C  0.62363377  0.68126520  0.06553882    -0.05900
C1061       C  0.65420699  0.64923754  0.08874135     0.00000
C1062       C  0.67985053  0.61515824  0.06166366    -0.08400
C1063       C  0.70655222  0.57132985  0.08016756     0.61900
H1064       H  0.69998260  0.59520321  0.99453763     0.12600
H1065       H  0.59985724  0.70362021  0.08501252     0.12600
C1066       C  0.57532165  0.71038654  0.99967586     0.62200
F1067       F  0.71227268  0.53655207  0.04724892    -0.23000
F1068       F  0.68181257  0.54965548  0.11528465    -0.20300
F1069       F  0.75204378  0.58431164  0.09416934    -0.20000
F1070       F  0.55212281  0.68627094  0.96532616    -0.20100
F1071       F  0.59042654  0.75475618  0.98471935    -0.20400
F1072       F  0.54088757  0.71820170  0.03291393    -0.23000
C1073       C  0.86563230  0.89230444  0.01379074    -0.05900
C1074       C  0.91063786  0.89365971  0.99136585     0.00000
C1075       C  0.95289242  0.88684699  0.01846874    -0.08500
C1076       C  0.94804816  0.88748409  0.06570600    -0.05900
C1077       C  0.90384793  0.89472738  0.08788058     0.00000
C1078       C  0.86147873  0.89036582  0.06150675    -0.08400
C1079       C  0.81249197  0.87792757  0.08103913     0.61900
H1080       H  0.83290854  0.89095322  0.99431090     0.12600
H1081       H  0.98041664  0.88465892  0.08602839     0.12600
C1082       C  0.50494568  0.88210956  0.00208809     0.62200
F1083       F  0.79019321  0.84438323  0.05387953    -0.23000
F1084       F  0.78390271  0.91836747  0.08238177    -0.20300
F1085       F  0.81585373  0.85780410  0.12381216    -0.20000
F1086       F  0.53008280  0.92267212  0.01436724    -0.20100
F1087       F  0.51097434  0.87576007  0.95622500    -0.20400
F1088       F  0.52600369  0.84309516  0.02318599    -0.23000
C1089       C  0.51723130  0.57392344  0.86999127    -0.05900
C1090       C  0.56533455  0.55970147  0.87304704     0.00000
C1091       C  0.57746095  0.51055599  0.87153264    -0.08500
C1092       C  0.53992308  0.97691464  0.87113132    -0.05900
C1093       C  0.99156237  0.99120895  0.87231013     0.00000
C1094       C  0.97937898  0.54034457  0.87054109    -0.08400
C1095       C  0.92755330  0.55678606  0.86847506     0.61900
H1096       H  0.50904439  0.61177334  0.87051005     0.12600
H1097       H  0.54802399  0.93905448  0.87254743     0.12600
C1098       C  0.62899704  0.99397481  0.86825553     0.62200
F1099       F  0.92371732  0.60610469  0.86807025    -0.23000
F1100       F  0.90210005  0.53965934  0.90544703    -0.20300
F1101       F  0.90730440  0.53984644  0.82906920    -0.20000
F1102       F  0.65521413  0.01149891  0.90432281    -0.20100
F1103       F  0.64913748  0.50956440  0.82906434    -0.20400
F1104       F  0.63269657  0.94463128  0.86881580    -0.23000
loop_ 
_geom_bond_atom_site_label_1 
_geom_bond_atom_site_label_2 
_geom_bond_distance 
_geom_bond_site_symmetry_2 
_ccdc_geom_bond_type 
C1            C2   1.548       .  S
C1            C7   1.536       .  S
C1            C5   1.533       .  S
C1          C246   1.537       .  S
C2            H9   1.082       .  S
C2            C3   1.372       .  D
C3            C4   1.545       .  S
C3           C65   1.477       .  S
C4            C8   1.529       .  S
C4            C6   1.542       .  S
C4           H10   1.111       .  S
C5           H11   1.087       .  S
C5            C6   1.364       .  D
C6           C53   1.480       .  S
C7           H12   1.087       .  S
C7            C8   1.357       .  D
C8          C265   1.472       .  S
C13          C14   1.549       .  S
C13          C19   1.537       .  S
C13          C17   1.534       .  S
C13         C230   1.546       .  S
C14          H21   1.085       .  S
C14          C15   1.369       .  D
C15          C16   1.542       .  S
C15          C63   1.476       .  S
C16          C20   1.527       .  S
C16          C18   1.543       .  S
C16          H22   1.111       .  S
C17          H23   1.075       .  S
C17          C18   1.364       .  D
C18          C57   1.478       .  S
C19          H24   1.087       .  S
C19          C20   1.359       .  D
C20         C262   1.474       .  S
C25          C26   1.532       .  S
C25          C31   1.544       .  S
C25          C29   1.546       .  S
C25         C198   1.542       .  S
C26          H33   1.087       .  S
C26          C27   1.361       .  D
C27          C28   1.542       .  S
C27          C52   1.480       .  S
C28          C32   1.530       .  S
C28          C30   1.542       .  S
C28          H34   1.111       .  S
C29          H35   1.080       .  S
C29          C30   1.374       .  D
C30          C66   1.479       .  S
C31          H36   1.087       .  S
C31          C32   1.359       .  D
C32         C217   1.474       .  S
C37          C38   1.549       .  S
C37          C43   1.534       .  S
C37          C41   1.531       .  S
C37         C182   1.547       .  S
C38          H45   1.083       .  S
C38          C39   1.366       .  D
C39          C40   1.545       .  S
C39          C50   1.481       .  S
C40          C44   1.529       .  S
C40          C42   1.546       .  S
C40          H46   1.111       .  S
C41          H47   1.077       .  S
C41          C42   1.366       .  D
C42          C70   1.475       .  S
C43          H48   1.087       .  S
C43          C44   1.358       .  D
C44         C214   1.474       .  S
O49          C52   1.267       .  A
O49         Cd54   2.462       .  S
C50          O59   1.263       .  A
C50          O55   1.266       .  A
O51          C57   1.265       .  A
O51         Cd54   2.442       .  S
C52          O60   1.264       .  A
C53          O58   1.266       .  A
C53          O56   1.265       .  A
Cd54         O61   2.505       .  S
Cd54         O60   2.498       .  S
Cd54        O611   2.499   1_455  S
Cd54        O607   2.463       .  S
Cd54        O610   2.458   1_455  S
Cd54        O608   2.492   1_455  S
O55        Cd606   2.463       .  S
O56        Cd606   2.493       .  S
C57          O61   1.264       .  A
O58        Cd606   2.458       .  S
O59        Cd606   2.499       .  S
O62          C65   1.266       .  A
O62        Cd343   2.472       .  S
C63          O72   1.264       .  A
C63          O68   1.265       .  A
O64          C70   1.265       .  A
O64         Cd67   2.436       .  S
C65          O73   1.264       .  A
C66          O71   1.264       .  A
C66          O69   1.265       .  A
Cd67         O74   2.491       .  S
Cd67         O72   2.470       .  S
Cd67         O68   2.470       .  S
Cd67        O338   2.473   1_545  S
Cd67        O349   2.468   1_545  S
Cd67        O347   2.473       .  S
Cd67        O345   2.481   1_545  S
O69        Cd343   2.481       .  S
C70          O74   1.263       .  A
O71        Cd343   2.473       .  S
O73        Cd343   2.468       .  S
C75          C76   1.532       .  S
C75          C81   1.543       .  S
C75          C79   1.543       .  S
C75         C249   1.540       .  S
C76          H83   1.087       .  S
C76          C77   1.363       .  D
C77          C78   1.543       .  S
C77         C139   1.479       .  S
C78          C82   1.530       .  S
C78          C80   1.546       .  S
C78          H84   1.111       .  S
C79          H85   1.081       .  S
C79          C80   1.372       .  D
C80         C127   1.484       .  S
C81          H86   1.087       .  S
C81          C82   1.357       .  D
C82         C166   1.471       .  S
C87          C88   1.549       .  S
C87          C93   1.535       .  S
C87          C91   1.535       .  S
C87         C233   1.546       .  S
C88          H95   1.084       .  S
C88          C89   1.368       .  D
C89          C90   1.542       .  S
C89         C137   1.475       .  S
C90          C94   1.526       .  S
C90          C92   1.541       .  S
C90          H96   1.111       .  S
C91          H97   1.077       .  S
C91          C92   1.366       .  D
C92         C131   1.477       .  S
C93          H98   1.087       .  S
C93          C94   1.358       .  D
C94         C169   1.471       .  S
C99         C100   1.547       .  S
C99         C105   1.536       .  S
C99         C103   1.543       .  S
C99         C185   1.549       .  S
C100        H107   1.084       .  S
C100        C101   1.367       .  D
C101        C102   1.542       .  S
C101        C126   1.478       .  S
C102        C106   1.526       .  S
C102        C104   1.539       .  S
C102        H108   1.111       .  S
C103        H109   1.076       .  S
C103        C104   1.369       .  D
C104        C140   1.481       .  S
C105        H110   1.087       .  S
C105        C106   1.357       .  D
C106        C150   1.472       .  S
C111        C112   1.547       .  S
C111        C117   1.535       .  S
C111        C115   1.531       .  S
C111        C201   1.539       .  S
C112        H119   1.083       .  S
C112        C113   1.370       .  D
C113        C114   1.547       .  S
C113        C124   1.483       .  S
C114        C118   1.533       .  S
C114        C116   1.545       .  S
C114        H120   1.111       .  S
C115        H121   1.087       .  S
C115        C116   1.365       .  D
C116        C144   1.478       .  S
C117        H122   1.087       .  S
C117        C118   1.360       .  D
C118        C153   1.476       .  S
O123        C126   1.266       .  A
O123       Cd128   2.468       .  S
C124        O133   1.264       .  A
C124        O129   1.265       .  A
O125        C131   1.265       .  A
O125       Cd128   2.449       .  S
C126        O134   1.263       .  A
C127        O132   1.265       .  A
C127        O130   1.265       .  A
Cd128       O135   2.496       .  S
Cd128       O134   2.485       .  S
Cd128       O409   2.502   1_545  S
Cd128       O405   2.474   1_545  S
Cd128       O408   2.480   1_545  S
Cd128       O406   2.496   1_545  S
O129       Cd404   2.474       .  S
O130       Cd404   2.497       .  S
C131        O135   1.265       .  A
O132       Cd404   2.481       .  S
O133       Cd404   2.502       .  S
O136        C139   1.267       .  A
O136       Cd693   2.459       .  S
C137        O146   1.263       .  A
C137        O142   1.266       .  A
O138        C144   1.266       .  A
O138       Cd141   2.451       .  S
C139        O147   1.265       .  A
C140        O145   1.265       .  A
C140        O143   1.264       .  A
Cd141       O148   2.486       .  S
Cd141       O146   2.473       .  S
Cd141       O142   2.465       .  S
Cd141       O688   2.459   1_455  S
Cd141       O699   2.485   1_455  S
Cd141       O697   2.470       .  S
Cd141       O695   2.494   1_455  S
O143       Cd693   2.493       .  S
C144        O148   1.264       .  A
O145       Cd693   2.471       .  S
O147       Cd693   2.485       .  S
C149        C150   1.400       .  A
C149        C154   1.406       .  A
C149        H156   1.083       .  S
C150        C151   1.414       .  A
C151        C158   1.515       .  S
C151        C152   1.400       .  A
C152        C153   1.400       .  A
C152        H157   1.084       .  S
C153        C154   1.416       .  A
C154        C155   1.514       .  S
C155        F159   1.386       .  S
C155        F160   1.379       .  S
C155        F161   1.382       .  S
C158        F162   1.381       .  S
C158        F163   1.381       .  S
C158        F164   1.384       .  S
C165        C442   1.399   1_545  A
C165        C722   1.404       .  A
C165        H172   1.084       .  S
C166        C441   1.399       .  A
C166        C719   1.415       .  A
C167        C174   1.516       .  S
C167        C718   1.415   1_455  A
C167        C444   1.401       .  A
C168        C169   1.398       .  A
C168        C443   1.401   1_545  A
C168        H173   1.084       .  S
C169        C170   1.415       .  A
C170        C723   1.516   1_455  S
C170        C717   1.404   1_455  A
C171        C722   1.516       .  S
C171        F175   1.385       .  S
C171        F728   1.383       .  S
C171        F729   1.380       .  S
C174        F178   1.382       .  S
C174        F179   1.379       .  S
C174        F180   1.384       .  S
F176        C723   1.383   1_455  S
F177        C723   1.380   1_455  S
C181        C182   1.409       .  A
C181        C186   1.406       .  A
C181        H188   1.074       .  S
C182        C183   1.434       .  A
C183        C190   1.535       .  S
C183        C184   1.410       .  A
C184        C185   1.414       .  A
C184        H189   1.081       .  S
C185        C186   1.432       .  A
C186        C187   1.530       .  S
C187        F191   1.386       .  S
C187        F192   1.378       .  S
C187        F193   1.381       .  S
C190        F194   1.380       .  S
C190        F195   1.380       .  S
C190        F196   1.385       .  S
C197        C198   1.406       .  A
C197        C202   1.398       .  A
C197        H204   1.086       .  S
C198        C199   1.422       .  A
C199        C206   1.517       .  S
C199        C200   1.413       .  A
C200        C201   1.414       .  A
C200        H205   1.079       .  S
C201        C202   1.431       .  A
C202        C203   1.528       .  S
C203        F207   1.384       .  S
C203        F208   1.384       .  S
C203        F209   1.374       .  S
C206        F210   1.383       .  S
C206        F211   1.382       .  S
C206        F488   1.385       .  S
F212        C482   1.385   1_545  S
C213        C214   1.400       .  A
C213        C218   1.402       .  A
C213        H220   1.084       .  S
C214        C215   1.414       .  A
C215        C222   1.515       .  S
C215        C216   1.406       .  A
C216        C217   1.401       .  A
C216        H221   1.084       .  S
C217        C218   1.417       .  A
C218        C219   1.520       .  S
C219        F223   1.385       .  S
C219        F224   1.381       .  S
C219        F225   1.381       .  S
C222        F226   1.380       .  S
C222        F227   1.382       .  S
C222        F228   1.384       .  S
C229        C230   1.409   1_554  A
C229        C234   1.407       .  A
C229        H236   1.077   1_554  S
C230        C231   1.434   1_556  A
C231        C238   1.532   1_554  S
C231        C232   1.409       .  A
C232        C233   1.411       .  A
C232        H237   1.076       .  S
C233        C234   1.434       .  A
C234        C235   1.532       .  S
C235        F239   1.386       .  S
C235        F240   1.380       .  S
C235        F241   1.381       .  S
C238        F242   1.381       .  S
C238        F243   1.382       .  S
C238        F244   1.386   1_556  S
C245        C246   1.414   1_554  A
C245        C250   1.412       .  A
C245        H252   1.078   1_554  S
C246        C247   1.435   1_556  A
C247        C806   1.532       .  S
C247        C248   1.399       .  A
C248        C249   1.405       .  A
C248        H253   1.085       .  S
C249        C250   1.419       .  A
C250        C251   1.518       .  S
C251        F255   1.385       .  S
C251        F256   1.383       .  S
C251        F257   1.382       .  S
C254        C799   1.533   1_455  S
C254        F258   1.384       .  S
C254        F259   1.374   1_554  S
C254        F260   1.384       .  S
C261        C262   1.398       .  A
C261        C818   1.403   1_455  A
C261        H268   1.083       .  S
C262        C263   1.417       .  A
C263        C546   1.515   1_545  S
C263        C540   1.403   1_545  A
C264        C539   1.403       .  A
C264        C817   1.398   1_455  A
C264        H269   1.084       .  S
C265        C816   1.399       .  A
C265        C542   1.414       .  A
C266        C267   1.513       .  S
C266        C813   1.403       .  A
C266        C541   1.414   1_545  A
C267        F271   1.384       .  S
C267        F272   1.383       .  S
C267        F273   1.378       .  S
C270        C539   1.514       .  S
C270        F274   1.383       .  S
C270        F276   1.385       .  S
C270        F551   1.379       .  S
F275        C546   1.379   1_545  S
C277        C278   1.548       .  S
C277        C283   1.536       .  S
C277        C281   1.533       .  S
C277        C522   1.537       .  S
C278        H285   1.082       .  S
C278        C279   1.372       .  D
C279        C280   1.544       .  S
C279        C341   1.477       .  S
C280        C284   1.529       .  S
C280        C282   1.542       .  S
C280        H286   1.111       .  S
C281        H287   1.087       .  S
C281        C282   1.364       .  D
C282        C329   1.479       .  S
C283        H288   1.087       .  S
C283        C284   1.357       .  D
C284        C541   1.472       .  S
C289        C290   1.549       .  S
C289        C295   1.536       .  S
C289        C293   1.534       .  S
C289        C506   1.546       .  S
C290        H297   1.085       .  S
C290        C291   1.369       .  D
C291        C292   1.542       .  S
C291        C339   1.476       .  S
C292        C296   1.527       .  S
C292        C294   1.543       .  S
C292        H298   1.111       .  S
C293        H299   1.075       .  S
C293        C294   1.364       .  D
C294        C333   1.478       .  S
C295        H300   1.087       .  S
C295        C296   1.359       .  D
C296        C538   1.474       .  S
C301        C302   1.532       .  S
C301        C307   1.544       .  S
C301        C305   1.546       .  S
C301        C474   1.542       .  S
C302        H309   1.087       .  S
C302        C303   1.361       .  D
C303        C304   1.542       .  S
C303        C328   1.480       .  S
C304        C308   1.530       .  S
C304        C306   1.542       .  S
C304        H310   1.111       .  S
C305        H311   1.080       .  S
C305        C306   1.374       .  D
C306        C342   1.479       .  S
C307        H312   1.087       .  S
C307        C308   1.359       .  D
C308        C493   1.474       .  S
C313        C314   1.549       .  S
C313        C319   1.534       .  S
C313        C317   1.531       .  S
C313        C458   1.547       .  S
C314        H321   1.083       .  S
C314        C315   1.366       .  D
C315        C316   1.545       .  S
C315        C326   1.481       .  S
C316        C320   1.529       .  S
C316        C318   1.546       .  S
C316        H322   1.111       .  S
C317        H323   1.077       .  S
C317        C318   1.366       .  D
C318        C346   1.475       .  S
C319        H324   1.087       .  S
C319        C320   1.358       .  D
C320        C490   1.474       .  S
O325        C328   1.267       .  A
O325       Cd330   2.463       .  S
C326        O335   1.263       .  A
C326        O331   1.266       .  A
O327        C333   1.265       .  A
O327       Cd330   2.442       .  S
C328        O336   1.264       .  A
C329        O334   1.266       .  A
C329        O332   1.265       .  A
Cd330       O337   2.504       .  S
Cd330       O336   2.498       .  S
Cd330       O887   2.499   1_455  S
Cd330       O883   2.463       .  S
Cd330       O886   2.458   1_455  S
Cd330       O884   2.492   1_455  S
O331       Cd882   2.463       .  S
O332       Cd882   2.492       .  S
C333        O337   1.264       .  A
O334       Cd882   2.458       .  S
O335       Cd882   2.499       .  S
O338        C341   1.266       .  A
C339        O348   1.264       .  A
C339        O344   1.265       .  A
O340        C346   1.265       .  A
O340       Cd343   2.436       .  S
C341        O349   1.264       .  A
C342        O347   1.264   1_565  A
C342        O345   1.265       .  A
Cd343       O350   2.491       .  S
Cd343       O348   2.470       .  S
Cd343       O344   2.470       .  S
C346        O350   1.263       .  A
C351        C352   1.532       .  S
C351        C357   1.543       .  S
C351        C355   1.542       .  S
C351        C525   1.540       .  S
C352        H359   1.087       .  S
C352        C353   1.363       .  D
C353        C354   1.543       .  S
C353        C415   1.479       .  S
C354        C358   1.530       .  S
C354        C356   1.546       .  S
C354        H360   1.111       .  S
C355        H361   1.081       .  S
C355        C356   1.372       .  D
C356        C403   1.483       .  S
C357        H362   1.087       .  S
C357        C358   1.357       .  D
C358        C442   1.471       .  S
C363        C364   1.549       .  S
C363        C369   1.535       .  S
C363        C367   1.536       .  S
C363        C509   1.546       .  S
C364        H371   1.084       .  S
C364        C365   1.368       .  D
C365        C366   1.542       .  S
C365        C413   1.475       .  S
C366        C370   1.526       .  S
C366        C368   1.541       .  S
C366        H372   1.111       .  S
C367        H373   1.077       .  S
C367        C368   1.366       .  D
C368        C407   1.478       .  S
C369        H374   1.087       .  S
C369        C370   1.358       .  D
C370        C445   1.471       .  S
C375        C376   1.547       .  S
C375        C381   1.536       .  S
C375        C379   1.543       .  S
C375        C461   1.549       .  S
C376        H383   1.084       .  S
C376        C377   1.367       .  D
C377        C378   1.542       .  S
C377        C402   1.479       .  S
C378        C382   1.526       .  S
C378        C380   1.539       .  S
C378        H384   1.111       .  S
C379        H385   1.076       .  S
C379        C380   1.369       .  D
C380        C416   1.481       .  S
C381        H386   1.087       .  S
C381        C382   1.357       .  D
C382        C426   1.472       .  S
C387        C388   1.547       .  S
C387        C393   1.536       .  S
C387        C391   1.531       .  S
C387        C477   1.539       .  S
C388        H395   1.083       .  S
C388        C389   1.370       .  D
C389        C390   1.547       .  S
C389        C400   1.483       .  S
C390        C394   1.533       .  S
C390        C392   1.545       .  S
C390        H396   1.111       .  S
C391        H397   1.087       .  S
C391        C392   1.365       .  D
C392        C420   1.478       .  S
C393        H398   1.087       .  S
C393        C394   1.360       .  D
C394        C429   1.476       .  S
O399        C402   1.266       .  A
O399       Cd404   2.469       .  S
C400        O409   1.264       .  A
C400        O405   1.265       .  A
O401        C407   1.265       .  A
O401       Cd404   2.449       .  S
C402        O410   1.263       .  A
C403        O408   1.265       .  A
C403        O406   1.265       .  A
Cd404       O411   2.496       .  S
Cd404       O410   2.485       .  S
C407        O411   1.265       .  A
O412        C415   1.267       .  A
O412       Cd969   2.459       .  S
C413        O422   1.263       .  A
C413        O418   1.266       .  A
O414        C420   1.266       .  A
O414       Cd417   2.451       .  S
C415        O423   1.265       .  A
C416        O421   1.265       .  A
C416        O419   1.264       .  A
Cd417       O964   2.459   1_455  S
Cd417       O424   2.486       .  S
Cd417       O975   2.484   1_455  S
Cd417       O422   2.473       .  S
Cd417       O418   2.465       .  S
Cd417       O973   2.470       .  S
Cd417       O971   2.493   1_455  S
O419       Cd969   2.494       .  S
C420        O424   1.264       .  A
O421       Cd969   2.471       .  S
O423       Cd969   2.485       .  S
C425        C426   1.400       .  A
C425        C430   1.406       .  A
C425        H432   1.083       .  S
C426        C427   1.414       .  A
C427        C434   1.515       .  S
C427        C428   1.400       .  A
C428        C429   1.400       .  A
C428        H433   1.084       .  S
C429        C430   1.416       .  A
C430        C431   1.514       .  S
C431        F435   1.386       .  S
C431        F436   1.379       .  S
C431        F437   1.382       .  S
C434        F438   1.381       .  S
C434        F439   1.381       .  S
C434        F440   1.384       .  S
C441        C998   1.404       .  A
C441        H448   1.084       .  S
C442        C995   1.415       .  A
C443        C450   1.516       .  S
C443        C994   1.415   1_455  A
C444        C445   1.398       .  A
C444        H449   1.084       .  S
C445        C446   1.415       .  A
C446        C999   1.516   1_455  S
C446        C993   1.404   1_455  A
C447        C998   1.516       .  S
C447        F451   1.385       .  S
C447       F1004   1.383       .  S
C447       F1005   1.380       .  S
C450        F454   1.382       .  S
C450        F455   1.379       .  S
C450        F456   1.384       .  S
F452        C999   1.383   1_455  S
F453        C999   1.380   1_455  S
C457        C458   1.409       .  A
C457        C462   1.406       .  A
C457        H464   1.074       .  S
C458        C459   1.434       .  A
C459        C466   1.535       .  S
C459        C460   1.410       .  A
C460        C461   1.414       .  A
C460        H465   1.081       .  S
C461        C462   1.432       .  A
C462        C463   1.530       .  S
C463        F467   1.386       .  S
C463        F468   1.378       .  S
C463        F469   1.381       .  S
C466        F470   1.380       .  S
C466        F471   1.380       .  S
C466        F472   1.385       .  S
C473        C474   1.406       .  A
C473        C478   1.398       .  A
C473        H480   1.086       .  S
C474        C475   1.422       .  A
C475        C482   1.517       .  S
C475        C476   1.413       .  A
C476        C477   1.414       .  A
C476        H481   1.079       .  S
C477        C478   1.431       .  A
C478        C479   1.528       .  S
C479        F483   1.384       .  S
C479        F484   1.384       .  S
C479        F485   1.374       .  S
C482        F486   1.383   1_565  S
C482        F487   1.382       .  S
C489        C490   1.400       .  A
C489        C494   1.402       .  A
C489        H496   1.084       .  S
C490        C491   1.414       .  A
C491        C498   1.515       .  S
C491        C492   1.406       .  A
C492        C493   1.401       .  A
C492        H497   1.084       .  S
C493        C494   1.417       .  A
C494        C495   1.520       .  S
C495        F499   1.385       .  S
C495        F500   1.381       .  S
C495        F501   1.381       .  S
C498        F502   1.380       .  S
C498        F503   1.382       .  S
C498        F504   1.384       .  S
C505        C506   1.409   1_554  A
C505        C510   1.407       .  A
C505        H512   1.077   1_554  S
C506        C507   1.434   1_556  A
C507        C514   1.532   1_554  S
C507        C508   1.409       .  A
C508        C509   1.411       .  A
C508        H513   1.076       .  S
C509        C510   1.434       .  A
C510        C511   1.532       .  S
C511        F515   1.386       .  S
C511        F516   1.380       .  S
C511        F517   1.381       .  S
C514        F518   1.381       .  S
C514        F519   1.382       .  S
C514        F520   1.386   1_556  S
C521        C522   1.414   1_554  A
C521        C526   1.412       .  A
C521        H528   1.078   1_554  S
C522        C523   1.435   1_556  A
C523       C1082   1.533       .  S
C523        C524   1.399       .  A
C524        C525   1.405       .  A
C524        H529   1.085       .  S
C525        C526   1.419       .  A
C526        C527   1.518       .  S
C527        F531   1.385       .  S
C527        F532   1.383       .  S
C527        F533   1.382       .  S
C530       C1075   1.533   1_455  S
C530        F534   1.384       .  S
C530        F535   1.374   1_554  S
C530        F536   1.384       .  S
C537        C538   1.398       .  A
C537       C1094   1.403   1_455  A
C537        H544   1.083       .  S
C538        C539   1.417       .  A
C540       C1093   1.398   1_455  A
C540        H545   1.084       .  S
C541       C1092   1.398       .  A
C542        C543   1.513       .  S
C542       C1089   1.403       .  A
C543        F547   1.384       .  S
C543        F548   1.383       .  S
C543        F549   1.378       .  S
C546        F550   1.383   1_565  S
C546        F552   1.385       .  S
C553        C554   1.548       .  S
C553        C559   1.536       .  S
C553        C557   1.533       .  S
C553        C798   1.537       .  S
C554        H561   1.082       .  S
C554        C555   1.372       .  D
C555        C556   1.544       .  S
C555        C617   1.477       .  S
C556        C560   1.529       .  S
C556        C558   1.542       .  S
C556        H562   1.111       .  S
C557        H563   1.087       .  S
C557        C558   1.364       .  D
C558        C605   1.479       .  S
C559        H564   1.087       .  S
C559        C560   1.357       .  D
C560        C817   1.472       .  S
C565        C566   1.549       .  S
C565        C571   1.536       .  S
C565        C569   1.534       .  S
C565        C782   1.546       .  S
C566        H573   1.085       .  S
C566        C567   1.369       .  D
C567        C568   1.542       .  S
C567        C615   1.476       .  S
C568        C572   1.527       .  S
C568        C570   1.543       .  S
C568        H574   1.111       .  S
C569        H575   1.076       .  S
C569        C570   1.365       .  D
C570        C609   1.478       .  S
C571        H576   1.087       .  S
C571        C572   1.359       .  D
C572        C814   1.473       .  S
C577        C578   1.532       .  S
C577        C583   1.544       .  S
C577        C581   1.545       .  S
C577        C750   1.542       .  S
C578        H585   1.087       .  S
C578        C579   1.361       .  D
C579        C580   1.542       .  S
C579        C604   1.480       .  S
C580        C584   1.530       .  S
C580        C582   1.542       .  S
C580        H586   1.111       .  S
C581        H587   1.080       .  S
C581        C582   1.374       .  D
C582        C618   1.479       .  S
C583        H588   1.087       .  S
C583        C584   1.359       .  D
C584        C769   1.474       .  S
C589        C590   1.549       .  S
C589        C595   1.534       .  S
C589        C593   1.531       .  S
C589        C734   1.547       .  S
C590        H597   1.083       .  S
C590        C591   1.366       .  D
C591        C592   1.545       .  S
C591        C602   1.481       .  S
C592        C596   1.529       .  S
C592        C594   1.546       .  S
C592        H598   1.111       .  S
C593        H599   1.077       .  S
C593        C594   1.366       .  D
C594        C622   1.475       .  S
C595        H600   1.087       .  S
C595        C596   1.359       .  D
C596        C766   1.474       .  S
O601        C604   1.267       .  A
O601       Cd606   2.462       .  S
C602        O611   1.263       .  A
C602        O607   1.266   1_655  A
O603        C609   1.265       .  A
O603       Cd606   2.443       .  S
C604        O612   1.264       .  A
C605        O610   1.266       .  A
C605        O608   1.265       .  A
Cd606       O613   2.505       .  S
Cd606       O612   2.498       .  S
C609        O613   1.264       .  A
O614        C617   1.266       .  A
O614       Cd895   2.473       .  S
C615        O624   1.264       .  A
C615        O620   1.265       .  A
O616        C622   1.265       .  A
O616       Cd619   2.436       .  S
C617        O625   1.264       .  A
C618        O623   1.264       .  A
C618        O621   1.265       .  A
Cd619       O890   2.473   1_545  S
Cd619       O626   2.491       .  S
Cd619       O901   2.467   1_545  S
Cd619       O624   2.470       .  S
Cd619       O620   2.470       .  S
Cd619       O899   2.473       .  S
Cd619       O897   2.480   1_545  S
O621       Cd895   2.480       .  S
C622        O626   1.263       .  A
O623       Cd895   2.473       .  S
O625       Cd895   2.467       .  S
C627        C628   1.532       .  S
C627        C633   1.543       .  S
C627        C631   1.543       .  S
C627        C801   1.540       .  S
C628        H635   1.087       .  S
C628        C629   1.363       .  D
C629        C630   1.543       .  S
C629        C691   1.479       .  S
C630        C634   1.530       .  S
C630        C632   1.546       .  S
C630        H636   1.111       .  S
C631        H637   1.081       .  S
C631        C632   1.372       .  D
C632        C679   1.483       .  S
C633        H638   1.087       .  S
C633        C634   1.357       .  D
C634        C718   1.471       .  S
C639        C640   1.549       .  S
C639        C645   1.535       .  S
C639        C643   1.535       .  S
C639        C785   1.546       .  S
C640        H647   1.084       .  S
C640        C641   1.368       .  D
C641        C642   1.542       .  S
C641        C689   1.475       .  S
C642        C646   1.526       .  S
C642        C644   1.542       .  S
C642        H648   1.111       .  S
C643        H649   1.077       .  S
C643        C644   1.366       .  D
C644        C683   1.478       .  S
C645        H650   1.087       .  S
C645        C646   1.358       .  D
C646        C721   1.471       .  S
C651        C652   1.547       .  S
C651        C657   1.536       .  S
C651        C655   1.543       .  S
C651        C737   1.549       .  S
C652        H659   1.085       .  S
C652        C653   1.367       .  D
C653        C654   1.542       .  S
C653        C678   1.479       .  S
C654        C658   1.526       .  S
C654        C656   1.539       .  S
C654        H660   1.111       .  S
C655        H661   1.076       .  S
C655        C656   1.368       .  D
C656        C692   1.481       .  S
C657        H662   1.087       .  S
C657        C658   1.357       .  D
C658        C702   1.472       .  S
C663        C664   1.546       .  S
C663        C669   1.536       .  S
C663        C667   1.531       .  S
C663        C753   1.539       .  S
C664        H671   1.083       .  S
C664        C665   1.370       .  D
C665        C666   1.547       .  S
C665        C676   1.483       .  S
C666        C670   1.533       .  S
C666        C668   1.545       .  S
C666        H672   1.111       .  S
C667        H673   1.087       .  S
C667        C668   1.365       .  D
C668        C696   1.478       .  S
C669        H674   1.087       .  S
C669        C670   1.360       .  D
C670        C705   1.476       .  S
O675        C678   1.266       .  A
O675       Cd680   2.469       .  S
C676        O685   1.264       .  A
C676        O681   1.265       .  A
O677        C683   1.265       .  A
O677       Cd680   2.449       .  S
C678        O686   1.263       .  A
C679        O684   1.265       .  A
C679        O682   1.265       .  A
Cd680       O687   2.496       .  S
Cd680       O686   2.486       .  S
Cd680       O961   2.503   1_545  S
Cd680       O957   2.475   1_545  S
Cd680       O960   2.481   1_545  S
Cd680       O958   2.496   1_545  S
O681       Cd956   2.475       .  S
O682       Cd956   2.496       .  S
C683        O687   1.265       .  A
O684       Cd956   2.481       .  S
O685       Cd956   2.502       .  S
O688        C691   1.267       .  A
C689        O698   1.263       .  A
C689        O694   1.266       .  A
O690        C696   1.266       .  A
O690       Cd693   2.451       .  S
C691        O699   1.265       .  A
C692        O697   1.265   1_655  A
C692        O695   1.264       .  A
Cd693       O700   2.486       .  S
Cd693       O698   2.473       .  S
Cd693       O694   2.465       .  S
C696        O700   1.264       .  A
C701        C702   1.400       .  A
C701        C706   1.406       .  A
C701        H708   1.083       .  S
C702        C703   1.414       .  A
C703        C710   1.515       .  S
C703        C704   1.400       .  A
C704        C705   1.400       .  A
C704        H709   1.084       .  S
C705        C706   1.416       .  A
C706        C707   1.514       .  S
C707        F711   1.385       .  S
C707        F712   1.379       .  S
C707        F713   1.382       .  S
C710        F714   1.381       .  S
C710        F715   1.381       .  S
C710        F716   1.384       .  S
C717        C994   1.399   1_545  A
C717        H724   1.084       .  S
C718        C993   1.399       .  A
C719        C726   1.516       .  S
C719        C996   1.401       .  A
C720        C995   1.401   1_545  A
C720        C721   1.398       .  A
C720        H725   1.084       .  S
C721        C722   1.415       .  A
C723        F727   1.385       .  S
C726        F730   1.382       .  S
C726        F731   1.378       .  S
C726        F732   1.384       .  S
C733        C734   1.409       .  A
C733        C738   1.406       .  A
C733        H740   1.075       .  S
C734        C735   1.434       .  A
C735        C742   1.534       .  S
C735        C736   1.410       .  A
C736        C737   1.414       .  A
C736        H741   1.081       .  S
C737        C738   1.432       .  A
C738        C739   1.530       .  S
C739        F743   1.386       .  S
C739        F744   1.378       .  S
C739        F745   1.381   1_655  S
C742        F746   1.380       .  S
C742        F747   1.380       .  S
C742        F748   1.385       .  S
C749        C750   1.406       .  A
C749        C754   1.397       .  A
C749        H756   1.086       .  S
C750        C751   1.422       .  A
C751        C758   1.517       .  S
C751        C752   1.413       .  A
C752        C753   1.414       .  A
C752        H757   1.079       .  S
C753        C754   1.431       .  A
C754        C755   1.528       .  S
C755        F759   1.384       .  S
C755        F760   1.384       .  S
C755        F761   1.374       .  S
C758        F762   1.383       .  S
C758        F763   1.382       .  S
C758       F1040   1.385       .  S
F764       C1034   1.385   1_545  S
C765        C766   1.400       .  A
C765        C770   1.402       .  A
C765        H772   1.084       .  S
C766        C767   1.414       .  A
C767        C774   1.515       .  S
C767        C768   1.406       .  A
C768        C769   1.401       .  A
C768        H773   1.084       .  S
C769        C770   1.417       .  A
C770        C771   1.520       .  S
C771        F775   1.385       .  S
C771        F776   1.381       .  S
C771        F777   1.381       .  S
C774        F778   1.380       .  S
C774        F779   1.382       .  S
C774        F780   1.385       .  S
C781        C782   1.409   1_554  A
C781        C786   1.407       .  A
C781        H788   1.077   1_554  S
C782        C783   1.434   1_556  A
C783        C790   1.532   1_554  S
C783        C784   1.409       .  A
C784        C785   1.411       .  A
C784        H789   1.076       .  S
C785        C786   1.434       .  A
C786        C787   1.532       .  S
C787        F791   1.386       .  S
C787        F792   1.380       .  S
C787        F793   1.381       .  S
C790        F794   1.381       .  S
C790        F795   1.382       .  S
C790        F796   1.386   1_556  S
C797        C798   1.414   1_554  A
C797        C802   1.412       .  A
C797        H804   1.078   1_554  S
C798        C799   1.435   1_556  A
C799        C800   1.399       .  A
C800        C801   1.405       .  A
C800        H805   1.085       .  S
C801        C802   1.419       .  A
C802        C803   1.518       .  S
C803        F807   1.385       .  S
C803        F808   1.383       .  S
C803        F809   1.382       .  S
C806        F810   1.384       .  S
C806        F811   1.374   1_554  S
C806        F812   1.384       .  S
C813        C814   1.398       .  A
C813        H820   1.083       .  S
C814        C815   1.417       .  A
C815       C1098   1.515   1_545  S
C815       C1092   1.403   1_545  A
C816       C1091   1.403       .  A
C816        H821   1.084       .  S
C817       C1094   1.414       .  A
C818        C819   1.513       .  S
C818       C1093   1.414   1_545  A
C819        F823   1.384       .  S
C819        F824   1.382       .  S
C819        F825   1.378       .  S
C822       C1091   1.515       .  S
C822        F826   1.383       .  S
C822       F1103   1.379       .  S
C822        F828   1.385       .  S
F827       C1098   1.379   1_545  S
C829        C830   1.548       .  S
C829        C835   1.536       .  S
C829        C833   1.533       .  S
C829       C1074   1.537       .  S
C830        H837   1.082       .  S
C830        C831   1.372       .  D
C831        C832   1.544       .  S
C831        C893   1.477       .  S
C832        C836   1.529       .  S
C832        C834   1.542       .  S
C832        H838   1.111       .  S
C833        H839   1.087       .  S
C833        C834   1.364       .  D
C834        C881   1.479       .  S
C835        H840   1.087       .  S
C835        C836   1.357       .  D
C836       C1093   1.472       .  S
C841        C842   1.549       .  S
C841        C847   1.537       .  S
C841        C845   1.534       .  S
C841       C1058   1.546       .  S
C842        H849   1.085       .  S
C842        C843   1.369       .  D
C843        C844   1.541       .  S
C843        C891   1.476       .  S
C844        C848   1.527       .  S
C844        C846   1.543       .  S
C844        H850   1.111       .  S
C845        H851   1.076       .  S
C845        C846   1.364       .  D
C846        C885   1.478       .  S
C847        H852   1.087       .  S
C847        C848   1.359       .  D
C848       C1090   1.473       .  S
C853        C854   1.532       .  S
C853        C859   1.544       .  S
C853        C857   1.546       .  S
C853       C1026   1.542       .  S
C854        H861   1.087       .  S
C854        C855   1.361       .  D
C855        C856   1.542       .  S
C855        C880   1.480       .  S
C856        C860   1.530       .  S
C856        C858   1.542       .  S
C856        H862   1.111       .  S
C857        H863   1.080       .  S
C857        C858   1.374       .  D
C858        C894   1.479       .  S
C859        H864   1.087       .  S
C859        C860   1.359       .  D
C860       C1045   1.474       .  S
C865        C866   1.549       .  S
C865        C871   1.534       .  S
C865        C869   1.531       .  S
C865       C1010   1.547       .  S
C866        H873   1.083       .  S
C866        C867   1.366       .  D
C867        C868   1.545       .  S
C867        C878   1.481       .  S
C868        C872   1.529       .  S
C868        C870   1.546       .  S
C868        H874   1.111       .  S
C869        H875   1.077       .  S
C869        C870   1.366       .  D
C870        C898   1.475       .  S
C871        H876   1.087       .  S
C871        C872   1.359       .  D
C872       C1042   1.474       .  S
O877        C880   1.267       .  A
O877       Cd882   2.462       .  S
C878        O887   1.263       .  A
C878        O883   1.266   1_655  A
O879        C885   1.265       .  A
O879       Cd882   2.443       .  S
C880        O888   1.264       .  A
C881        O886   1.266       .  A
C881        O884   1.265       .  A
Cd882       O889   2.504       .  S
Cd882       O888   2.497       .  S
C885        O889   1.264       .  A
O890        C893   1.266       .  A
C891        O900   1.264       .  A
C891        O896   1.265       .  A
O892        C898   1.265       .  A
O892       Cd895   2.436       .  S
C893        O901   1.264       .  A
C894        O899   1.264   1_565  A
C894        O897   1.265       .  A
Cd895       O902   2.491       .  S
Cd895       O900   2.469       .  S
Cd895       O896   2.471       .  S
C898        O902   1.263       .  A
C903        C904   1.532       .  S
C903        C909   1.543       .  S
C903        C907   1.543       .  S
C903       C1077   1.540       .  S
C904        H911   1.087       .  S
C904        C905   1.363       .  D
C905        C906   1.543       .  S
C905        C967   1.479       .  S
C906        C910   1.530       .  S
C906        C908   1.546       .  S
C906        H912   1.111       .  S
C907        H913   1.081       .  S
C907        C908   1.372       .  D
C908        C955   1.484       .  S
C909        H914   1.087       .  S
C909        C910   1.357       .  D
C910        C994   1.471       .  S
C915        C916   1.549       .  S
C915        C921   1.535       .  S
C915        C919   1.535       .  S
C915       C1061   1.546       .  S
C916        H923   1.084       .  S
C916        C917   1.368       .  D
C917        C918   1.542       .  S
C917        C965   1.475       .  S
C918        C922   1.526       .  S
C918        C920   1.542       .  S
C918        H924   1.111       .  S
C919        H925   1.077       .  S
C919        C920   1.366       .  D
C920        C959   1.478       .  S
C921        H926   1.087       .  S
C921        C922   1.358       .  D
C922        C997   1.471       .  S
C927        C928   1.547       .  S
C927        C933   1.536       .  S
C927        C931   1.543       .  S
C927       C1013   1.549       .  S
C928        H935   1.085       .  S
C928        C929   1.367       .  D
C929        C930   1.542       .  S
C929        C954   1.479       .  S
C930        C934   1.526       .  S
C930        C932   1.539       .  S
C930        H936   1.111       .  S
C931        H937   1.076       .  S
C931        C932   1.369       .  D
C932        C968   1.481       .  S
C933        H938   1.087       .  S
C933        C934   1.357       .  D
C934        C978   1.472       .  S
C939        C940   1.547       .  S
C939        C945   1.536       .  S
C939        C943   1.531       .  S
C939       C1029   1.539       .  S
C940        H947   1.083       .  S
C940        C941   1.370       .  D
C941        C942   1.547       .  S
C941        C952   1.483       .  S
C942        C946   1.533       .  S
C942        C944   1.545       .  S
C942        H948   1.111       .  S
C943        H949   1.087       .  S
C943        C944   1.365       .  D
C944        C972   1.478       .  S
C945        H950   1.087       .  S
C945        C946   1.360       .  D
C946        C981   1.476       .  S
O951        C954   1.266       .  A
O951       Cd956   2.469       .  S
C952        O961   1.264       .  A
C952        O957   1.265       .  A
O953        C959   1.265       .  A
O953       Cd956   2.449       .  S
C954        O962   1.263       .  A
C955        O960   1.265       .  A
C955        O958   1.265       .  A
Cd956       O963   2.496       .  S
Cd956       O962   2.485       .  S
C959        O963   1.265       .  A
O964        C967   1.267       .  A
C965        O974   1.263       .  A
C965        O970   1.266       .  A
O966        C972   1.266       .  A
O966       Cd969   2.451       .  S
C967        O975   1.265       .  A
C968        O973   1.265   1_655  A
C968        O971   1.264       .  A
Cd969       O976   2.486       .  S
Cd969       O974   2.473       .  S
Cd969       O970   2.465       .  S
C972        O976   1.264       .  A
C977        C978   1.400       .  A
C977        C982   1.406       .  A
C977        H984   1.083       .  S
C978        C979   1.414       .  A
C979        C986   1.515       .  S
C979        C980   1.400       .  A
C980        C981   1.400       .  A
C980        H985   1.084       .  S
C981        C982   1.416       .  A
C982        C983   1.514       .  S
C983        F987   1.386       .  S
C983        F988   1.379       .  S
C983        F989   1.382       .  S
C986        F990   1.381       .  S
C986        F991   1.381       .  S
C986        F992   1.384       .  S
C993       H1000   1.084       .  S
C995       C1002   1.516       .  S
C996        C997   1.398       .  A
C996       H1001   1.084       .  S
C997        C998   1.415       .  A
C999       F1003   1.385       .  S
C1002      F1006   1.382       .  S
C1002      F1007   1.378       .  S
C1002      F1008   1.384       .  S
C1009      C1010   1.409       .  A
C1009      C1014   1.406       .  A
C1009      H1016   1.075       .  S
C1010      C1011   1.434       .  A
C1011      C1018   1.534       .  S
C1011      C1012   1.410       .  A
C1012      C1013   1.414       .  A
C1012      H1017   1.081       .  S
C1013      C1014   1.432       .  A
C1014      C1015   1.530       .  S
C1015      F1019   1.386       .  S
C1015      F1020   1.378       .  S
C1015      F1021   1.381   1_655  S
C1018      F1022   1.380       .  S
C1018      F1023   1.380       .  S
C1018      F1024   1.385       .  S
C1025      C1026   1.406       .  A
C1025      C1030   1.397       .  A
C1025      H1032   1.086       .  S
C1026      C1027   1.422       .  A
C1027      C1034   1.517       .  S
C1027      C1028   1.413       .  A
C1028      C1029   1.414       .  A
C1028      H1033   1.079       .  S
C1029      C1030   1.431       .  A
C1030      C1031   1.528       .  S
C1031      F1035   1.384       .  S
C1031      F1036   1.384       .  S
C1031      F1037   1.374       .  S
C1034      F1038   1.383   1_565  S
C1034      F1039   1.382       .  S
C1041      C1042   1.399       .  A
C1041      C1046   1.402       .  A
C1041      H1048   1.084       .  S
C1042      C1043   1.414       .  A
C1043      C1050   1.515       .  S
C1043      C1044   1.406       .  A
C1044      C1045   1.401       .  A
C1044      H1049   1.084       .  S
C1045      C1046   1.417       .  A
C1046      C1047   1.520       .  S
C1047      F1051   1.385       .  S
C1047      F1052   1.381       .  S
C1047      F1053   1.381       .  S
C1050      F1054   1.380       .  S
C1050      F1055   1.382       .  S
C1050      F1056   1.385       .  S
C1057      C1058   1.409   1_554  A
C1057      C1062   1.407       .  A
C1057      H1064   1.077   1_554  S
C1058      C1059   1.434   1_556  A
C1059      C1066   1.532   1_554  S
C1059      C1060   1.409       .  A
C1060      C1061   1.411       .  A
C1060      H1065   1.076       .  S
C1061      C1062   1.434       .  A
C1062      C1063   1.532       .  S
C1063      F1067   1.386       .  S
C1063      F1068   1.380       .  S
C1063      F1069   1.381       .  S
C1066      F1070   1.381       .  S
C1066      F1071   1.382       .  S
C1066      F1072   1.386   1_556  S
C1073      C1074   1.414   1_554  A
C1073      C1078   1.412       .  A
C1073      H1080   1.078   1_554  S
C1074      C1075   1.435   1_556  A
C1075      C1076   1.399       .  A
C1076      C1077   1.405       .  A
C1076      H1081   1.085       .  S
C1077      C1078   1.419       .  A
C1078      C1079   1.518       .  S
C1079      F1083   1.385       .  S
C1079      F1084   1.383       .  S
C1079      F1085   1.382       .  S
C1082      F1086   1.384       .  S
C1082      F1087   1.374   1_554  S
C1082      F1088   1.384       .  S
C1089      C1090   1.398       .  A
C1089      H1096   1.083       .  S
C1090      C1091   1.417       .  A
C1092      H1097   1.084       .  S
C1094      C1095   1.513       .  S
C1095      F1099   1.384       .  S
C1095      F1100   1.382       .  S
C1095      F1101   1.378       .  S
C1098      F1102   1.383   1_565  S
C1098      F1104   1.385       .  S
