geometry optimzed in LAMMPS
_audit_creation_date              2020-11-30 
_audit_creation_method            'lammps2cif' 
_symmetry_space_group_name_H-M    'P1' 
_symmetry_Int_Tables_number       1 
_symmetry_cell_setting            triclinic 
loop_ 
_symmetry_equiv_pos_as_xyz 
  x,y,z 
_cell_length_a                    68.20231307 
_cell_length_b                    68.53365874747402 
_cell_length_c                    68.49261685932888 
_cell_angle_alpha                 90.15276607247004 
_cell_angle_beta                  90.03397786165766 
_cell_angle_gamma                 89.97811931334294 
loop_ 
_atom_site_label 
_atom_site_type_symbol 
_atom_site_fract_x 
_atom_site_fract_y 
_atom_site_fract_z 
_atom_site_charge 
O1          O  0.61379866  0.66171042  0.64790967    -0.76500
C2          C  0.66592335  0.66004221  0.60948541     0.84500
O3          O  0.59822466  0.62169803  0.59098600    -0.77600
O4          O  0.66257671  0.59584394  0.60065473    -0.79100
O5          O  0.65110068  0.60355575  0.66836602    -0.78900
O6          O  0.61626591  0.63866981  0.67074723    -0.77500
Zn7        Zn  0.62459585  0.64929474  0.62320346     1.55700
O8          O  0.67434238  0.60738927  0.64572976    -0.78900
Cd9        Cd  0.62613805  0.61475638  0.65519628     1.59700
Cd10       Cd  0.61457096  0.60472349  0.61003555     1.59600
O11         O  0.60407756  0.59420451  0.65713981    -0.78900
O12         O  0.63104889  0.62190719  0.62735218    -1.89400
Cd13       Cd  0.65943270  0.61750918  0.62143866     1.59900
O14         O  0.59505303  0.58808979  0.62637353    -0.78900
O15         O  0.67262799  0.64279304  0.61129062    -0.77500
C16         C  0.59570050  0.64009706  0.59025156     0.85000
C17         C  0.61156736  0.65581260  0.66539745     0.84700
O18         O  0.64835180  0.66445528  0.61398543    -0.76500
C19         C  0.66878535  0.60196665  0.66260570     0.85500
O20         O  0.60433500  0.65182531  0.60185532    -0.76600
C21         C  0.59319791  0.58560661  0.64471085     0.85600
C22         C  0.65066784  0.58458672  0.59180221     0.85900
O23         O  0.63213464  0.58582430  0.59386988    -0.79000
O24         O  0.85926264  0.60992147  0.33607124    -0.76500
C25         C  0.89783504  0.66208457  0.33981779     0.84500
O26         O  0.91640853  0.59395112  0.37581624    -0.77600
O27         O  0.90578313  0.65712983  0.40393702    -0.79100
O28         O  0.83760946  0.64583924  0.39464100    -0.78900
O29         O  0.83615935  0.61142581  0.35908858    -0.77500
Zn30       Zn  0.88384363  0.62069786  0.34902908     1.55700
O31         O  0.86042835  0.66905349  0.39196188    -0.78900
Cd32       Cd  0.85133888  0.62115304  0.38338797     1.59700
Cd33       Cd  0.89685623  0.60949926  0.39328826     1.59600
O34         O  0.84934379  0.59885490  0.40357836    -0.78900
O35         O  0.87940494  0.62633360  0.37661598    -1.89400
Cd36       Cd  0.88514154  0.65449465  0.38199314     1.59900
O37         O  0.88024763  0.58959602  0.40926434    -0.78900
O38         O  0.89587851  0.66824630  0.35726731    -0.77500
C39         C  0.91742544  0.59220813  0.35731017     0.85000
C40         C  0.84170000  0.60724453  0.34183391     0.84700
O41         O  0.89313222  0.64481464  0.33475681    -0.76500
C42         C  0.84328935  0.66343806  0.39671469     0.85500
O43         O  0.90569883  0.60103793  0.34587792    -0.76600
C44         C  0.86181620  0.58774601  0.41179162     0.85600
C45         C  0.91487681  0.64498927  0.41467351     0.85900
O46         O  0.91297709  0.62657273  0.41275119    -0.79000
O47         O  0.89797430  0.41622885  0.14232680    -0.76500
C48         C  0.85687918  0.41420093  0.09171668     0.84500
O49         O  0.84212896  0.37516616  0.15887770    -0.77600
O50         O  0.85046821  0.34925766  0.09488567    -0.79100
O51         O  0.91842321  0.35954238  0.10276146    -0.78900
O52         O  0.92147058  0.39386826  0.13846087    -0.77500
Zn53       Zn  0.87317983  0.40351126  0.13191596     1.55700
O54         O  0.89439772  0.36306089  0.08084633    -0.78900
Cd55       Cd  0.90614240  0.36969967  0.12861452     1.59700
Cd56       Cd  0.86166455  0.35866832  0.14230594     1.59600
O57         O  0.90979653  0.34877025  0.15010328    -0.78900
O58         O  0.87775499  0.37624936  0.12513529    -1.89400
Cd59       Cd  0.87038520  0.37188195  0.09717275     1.59900
O60         O  0.87958413  0.34285456  0.16119829    -0.78900
O61         O  0.85833829  0.39690309  0.08501193    -0.77500
C62         C  0.84083634  0.39358212  0.16121053     0.85000
C63         C  0.91576975  0.41074172  0.14382723     0.84700
O64         O  0.86273868  0.41877335  0.10878820    -0.76500
C65         C  0.91182308  0.35816943  0.08539900     0.85500
O66         O  0.85206808  0.40548983  0.15241238    -0.76600
C67         C  0.89809867  0.34033917  0.16185517     0.85600
C68         C  0.84286111  0.33752072  0.10710272     0.85900
O69         O  0.84580317  0.33886527  0.12544245    -0.79000
C70         C  0.74588124  0.54389020  0.00410005     0.82200
N71         N  0.76006945  0.53356145  0.01344130    -0.76100
C72         C  0.75975565  0.51374491  0.01305263     0.84700
N73         N  0.74525897  0.50428516  0.00330196    -0.76000
C74         C  0.73106133  0.51453776  0.99395871     0.84700
N75         N  0.73138732  0.53435975  0.99433017    -0.77800
C76         C  0.04834031  0.49728227  0.25238654     0.82200
N77         N  0.03772715  0.48831444  0.23814234    -0.76100
C78         C  0.01784453  0.48960839  0.23816229     0.84700
N79         N  0.00860675  0.49984369  0.25241896    -0.76000
C80         C  0.01911208  0.50881358  0.26666403     0.84700
N81         N  0.03900611  0.50755083  0.26664968    -0.77800
O82         O  0.60764555  0.33085803  0.85841540    -0.76500
C83         C  0.65934550  0.33314328  0.89825191     0.84500
O84         O  0.59083547  0.37235137  0.91319161    -0.77600
O85         O  0.65482450  0.39799314  0.90650123    -0.79100
O86         O  0.64825679  0.38734419  0.83792264    -0.78900
O87         O  0.61261067  0.35250067  0.83464314    -0.77500
Zn88       Zn  0.61855801  0.34368520  0.88293168     1.55700
O89         O  0.66954750  0.38535537  0.86264515    -0.78900
Cd90       Cd  0.62227498  0.37687368  0.84980830     1.59700
Cd91       Cd  0.60763283  0.38864626  0.89380927     1.59600
O92         O  0.60058056  0.39755036  0.84561768    -0.78900
O93         O  0.62525554  0.37092004  0.87825457    -1.89400
Cd94       Cd  0.65309973  0.37571456  0.88610410     1.59900
O95         O  0.58888462  0.40403253  0.87541188    -0.78900
O96         O  0.66576949  0.35056214  0.89721706    -0.77500
C97         C  0.58895665  0.35393928  0.91499073     0.85000
C98         C  0.60657126  0.33596283  0.84056173     0.84700
O99         O  0.64215112  0.32848414  0.89264992    -0.76500
C100        C  0.66536190  0.38967408  0.84506427     0.85500
O101        O  0.59824132  0.34188300  0.90426204    -0.76600
C102        C  0.58853759  0.40615975  0.85692681     0.85600
C103        C  0.64235363  0.40994246  0.91349733     0.85900
O104        O  0.62406669  0.40876060  0.90979203    -0.79000
O105        O  0.41221417  0.13946360  0.89745855    -0.76500
C106        C  0.41284361  0.08751081  0.85925827     0.84500
O107        O  0.37101604  0.15259439  0.84062093    -0.77600
O108        O  0.34809914  0.08789118  0.85026528    -0.79100
O109        O  0.35626372  0.09882715  0.91829855    -0.78900
O110        O  0.38983568  0.13498664  0.92075379    -0.77500
Zn111      Zn  0.40001026  0.12798075  0.87297379     1.55700
O112        O  0.36062701  0.07621796  0.89515276    -0.78900
Cd113      Cd  0.36602778  0.12434778  0.90533412     1.59700
Cd114      Cd  0.35479382  0.13599159  0.86033006     1.59600
O115        O  0.34447944  0.14535781  0.90791428    -0.78900
O116        O  0.37292293  0.12017892  0.87727397    -1.89400
Cd117      Cd  0.36979119  0.09181628  0.87097443     1.59900
O118        O  0.33778177  0.15474945  0.87739422    -0.78900
O119        O  0.39582355  0.08001141  0.86067734    -0.77500
C120        C  0.38944035  0.15554955  0.83951191     0.85000
C121        C  0.40661533  0.14083789  0.91515085     0.84700
O122        O  0.41636597  0.10511417  0.86404885    -0.76500
C123        C  0.35538483  0.08124963  0.91227598     0.85500
O124        O  0.40156626  0.14761949  0.85118418    -0.76600
C125        C  0.33539533  0.15615248  0.89581743     0.85600
C126        C  0.33595977  0.09927640  0.84194453     0.85900
O127        O  0.33617110  0.11771807  0.84449877    -0.79000
C128        C  0.49897330  0.24739951  0.04563300     0.82200
N129        N  0.48915567  0.23321436  0.03575565    -0.76100
C130        C  0.48860124  0.23346686  0.01593496     0.84700
N131        N  0.49784058  0.24789602  0.00602801    -0.76000
C132        C  0.50763793  0.26208251  0.01583879     0.84700
N133        N  0.50822167  0.26183271  0.03565880    -0.77800
C134        C  0.49905310  0.24414984  0.70981796     0.82200
N135        N  0.51299262  0.25400617  0.72007714    -0.76100
C136        C  0.51220896  0.25456437  0.73990241     0.84700
N137        N  0.49748365  0.24529547  0.74941813    -0.76000
C138        C  0.48354164  0.23546247  0.73924983     0.84700
N139        N  0.48432920  0.23487671  0.71943398    -0.77800
C140        C  0.54925516  0.00199856  0.75401960     0.82200
N141        N  0.53937602  0.01235352  0.76781225    -0.76100
C142        C  0.51946713  0.01247890  0.76782420     0.84700
N143        N  0.50946349  0.00224911  0.75407651    -0.76000
C144        C  0.51926355  0.99189764  0.74028490     0.84700
N145        N  0.53918570  0.99174353  0.74026616    -0.77800
C146        C  0.95810773  0.99746194  0.25154420     0.82200
N147        N  0.96869157  0.98815694  0.26553203    -0.76100
C148        C  0.98857864  0.98910483  0.26536282     0.84700
N149        N  0.99786854  0.99932807  0.25119910    -0.76000
C150        C  0.98740057  0.00863767  0.23719126     0.84700
N151        N  0.96747969  0.00772151  0.23734904    -0.77800
C152        C  0.25120200  0.29261916  0.00049711     0.82200
N153        N  0.24199764  0.28359862  0.01558654    -0.76100
C154        C  0.24079803  0.26382573  0.01599241     0.84700
N155        N  0.24879394  0.25311966  0.00135599    -0.76000
C156        C  0.25796197  0.26204583  0.98627303     0.84700
N157        N  0.25922238  0.28182618  0.98584467    -0.77800
C158        C  0.25428577  0.94979167  0.00753675     0.82200
N159        N  0.26872947  0.95965413  0.99811681    -0.76100
C160        C  0.26888121  0.97946150  0.99829122     0.84700
N161        N  0.25455672  0.98938231  0.00777884    -0.76000
C162        C  0.24010216  0.97962341  0.01718555     0.84700
N163        N  0.23992584  0.95978882  0.01705379    -0.77800
C164        C  0.29537890  0.00012750  0.25474884     0.82200
N165        N  0.28547156  0.98551754  0.26380015    -0.76100
C166        C  0.26556885  0.98512054  0.26328835     0.84700
N167        N  0.25560163  0.99932349  0.25374052    -0.76000
C168        C  0.26542606  0.01393205  0.24469234     0.84700
N169        N  0.28534037  0.01433078  0.24516936    -0.77800
C170        C  0.00830859  0.25475092  0.95552947     0.82200
N171        N  0.99807786  0.26869620  0.96532346    -0.76100
C172        C  0.99785094  0.26875162  0.98514984     0.84700
N173        N  0.00778225  0.25483215  0.99514642    -0.76000
C174        C  0.01799836  0.24088470  0.98541657     0.84700
N175        N  0.01824131  0.24082013  0.96558846    -0.77800
C176        C  0.00168815  0.24846979  0.29505689     0.82200
N177        N  0.98712199  0.25779411  0.28521312    -0.76100
C178        C  0.98744125  0.25845874  0.26538427     0.84700
N179        N  0.00232819  0.24985535  0.25545802    -0.76000
C180        C  0.01689902  0.24057358  0.26520687     0.84700
N181        N  0.01657665  0.23985203  0.28502725    -0.77800
O182        O  0.10649969  0.08360107  0.14237464    -0.76500
C183        C  0.14637426  0.08545412  0.09096630     0.84500
O184        O  0.16311774  0.12308254  0.15941303    -0.77600
O185        O  0.15560279  0.14965577  0.09572111    -0.79100
O186        O  0.08686213  0.14166342  0.10402510    -0.78900
O187        O  0.08343263  0.10647322  0.13906736    -0.77500
Zn188      Zn  0.13143463  0.09591859  0.13181186     1.55700
O189        O  0.11083719  0.13863377  0.08200673    -0.78900
Cd190      Cd  0.09918944  0.13044446  0.12943998     1.59700
Cd191      Cd  0.14416010  0.14029755  0.14298822     1.59600
O192        O  0.09639825  0.15121062  0.15126528    -0.78900
O193        O  0.12741773  0.12338066  0.12560821    -1.89400
Cd194      Cd  0.13455483  0.12807955  0.09766422     1.59900
O195        O  0.12685784  0.15676339  0.16194943    -0.78900
O196        O  0.14515200  0.10284092  0.08454228    -0.77500
C197        C  0.16417185  0.10460492  0.16120832     0.85000
C198        C  0.08884034  0.08943983  0.14416522     0.84700
O199        O  0.14098561  0.08087079  0.10815376    -0.76500
C200        C  0.09354013  0.14375577  0.08677658     0.85500
O201        O  0.15281340  0.09306347  0.15200651    -0.76600
C202        C  0.10839716  0.15957599  0.16281400     0.85600
C203        C  0.16381729  0.16088482  0.10809030     0.85900
O204        O  0.16086254  0.15952151  0.12641036    -0.79000
O205        O  0.42528573  0.85500269  0.60701650    -0.76500
C206        C  0.42119274  0.90668096  0.64629017     0.84500
O207        O  0.38109784  0.83963451  0.66069332    -0.77600
O208        O  0.35603214  0.90415147  0.64918073    -0.79100
O209        O  0.36959311  0.89296477  0.58231638    -0.78900
O210        O  0.40348716  0.85683370  0.58276447    -0.77500
Zn211      Zn  0.41119595  0.86594970  0.63076092     1.55700
O212        O  0.37203169  0.91594295  0.60540074    -0.78900
Cd213      Cd  0.37869163  0.86769552  0.59633638     1.59700
Cd214      Cd  0.36552978  0.85625880  0.64065227     1.59600
O215        O  0.35723973  0.84659767  0.59278482    -0.78900
O216        O  0.38405738  0.87254356  0.62466090    -1.89400
Cd217      Cd  0.37955160  0.90082217  0.63045776     1.59900
O218        O  0.34936936  0.83738964  0.62303880    -0.78900
O219        O  0.40407317  0.91345901  0.64324560    -0.77500
C220        C  0.39949472  0.83708647  0.66269090     0.85000
C221        C  0.42037314  0.85230004  0.58925829     0.84700
O222        O  0.42595093  0.88931602  0.64159125    -0.76500
C223        C  0.36802346  0.91060566  0.58802846     0.85500
O224        O  0.41202991  0.84571887  0.65201537    -0.76600
C225        C  0.34766822  0.83587951  0.60456711     0.85600
C226        C  0.34422675  0.89233200  0.65734073     0.85900
O227        O  0.34575044  0.87387862  0.65559525    -0.79000
O228        O  0.10683882  0.91483291  0.36243598    -0.76500
C229        C  0.14599744  0.91308650  0.41432940     0.84500
O230        O  0.16318792  0.87478989  0.34641145    -0.77600
O231        O  0.15484850  0.84887049  0.41088618    -0.79100
O232        O  0.08589208  0.85845681  0.40115232    -0.78900
O233        O  0.08376353  0.89190887  0.36487320    -0.77500
Zn234      Zn  0.13151470  0.90243426  0.37346114     1.55700
O235        O  0.10958467  0.86107144  0.42354558    -0.78900
Cd236      Cd  0.09911609  0.86821148  0.37567717     1.59700
Cd237      Cd  0.14440808  0.85791338  0.36328164     1.59600
O238        O  0.09667466  0.84670254  0.35460794    -0.78900
O239        O  0.12731610  0.87507886  0.38000177    -1.89400
Cd240      Cd  0.13387226  0.87052486  0.40809972     1.59900
O241        O  0.12736231  0.84091634  0.34469662    -0.78900
O242        O  0.14451248  0.89578149  0.42087362    -0.77500
C243        C  0.16424325  0.89322287  0.34429262     0.85000
C244        C  0.08928186  0.90895440  0.36000300     0.84700
O245        O  0.14091050  0.91763728  0.39703686    -0.76500
C246        C  0.09214184  0.85666251  0.41858956     0.85500
O247        O  0.15294840  0.90493923  0.35333824    -0.76600
C248        C  0.10893193  0.83806858  0.34354946     0.85600
C249        C  0.16378272  0.83792816  0.39875522     0.85900
O250        O  0.16135644  0.83931610  0.38035824    -0.79000
C251        C  0.00480258  0.74806411  0.54915620     0.82200
N252        N  0.99586881  0.73341957  0.53910310    -0.76100
C253        C  0.99591753  0.73352322  0.51926770     0.84700
N254        N  0.00480762  0.74827568  0.50954187    -0.76000
C255        C  0.01370685  0.76290737  0.51952425     0.84700
N256        N  0.01370726  0.76281895  0.53934844    -0.77800
C257        C  0.25744138  0.04059007  0.50340904     0.82200
N258        N  0.27280816  0.03072024  0.51127455    -0.76100
C259        C  0.27312601  0.01091072  0.51071890     0.84700
N260        N  0.25809402  0.00101149  0.50232396    -0.76000
C261        C  0.24273897  0.01083523  0.49448254     0.84700
N262        N  0.24242356  0.03063451  0.49498798    -0.77800
C263        C  0.25413693  0.70362646  0.50102510     0.82200
N264        N  0.24483711  0.71370107  0.48665041    -0.76100
C265        C  0.24522302  0.73353027  0.48666568     0.84700
N266        N  0.25486972  0.74322574  0.50102986    -0.76000
C267        C  0.26413925  0.73324753  0.51539599     0.84700
N268        N  0.26380948  0.71342631  0.51538653    -0.77800
C269        C  0.00548512  0.75074233  0.20809730     0.82200
N270        N  0.99082499  0.74155954  0.21790051    -0.76100
C271        C  0.99088774  0.74128103  0.23773694     0.84700
N272        N  0.00559433  0.75011597  0.24770910    -0.76000
C273        C  0.02024128  0.75925806  0.23799415     0.84700
N274        N  0.02020338  0.75959355  0.21816679    -0.77800
C275        C  0.20704220  0.99442959  0.74565743     0.82200
N276        N  0.21664431  0.98041464  0.73533933    -0.76100
C277        C  0.23653755  0.97964370  0.73572467     0.84700
N278        N  0.24678487  0.99289054  0.74636057    -0.76000
C279        C  0.23723755  0.00688519  0.75666445     0.84700
N280        N  0.21735057  0.00766544  0.75631273    -0.77800
C281        C  0.75165722  0.20317781  0.00481282     0.82200
N282        N  0.76145035  0.21322709  0.01889705    -0.76100
C283        C  0.76169170  0.23303703  0.01859818     0.84700
N284        N  0.75218370  0.24276765  0.00420285    -0.76000
C285        C  0.74241086  0.23279307  0.99010368     0.84700
N286        N  0.74213183  0.21297438  0.99040646    -0.77800
C287        C  0.49910493  0.74134516  0.79510654     0.82200
N288        N  0.51360142  0.73187888  0.78529615    -0.76100
C289        C  0.51396946  0.73217660  0.76547160     0.84700
N290        N  0.49989519  0.74195673  0.75550026    -0.76000
C291        C  0.48541502  0.75140875  0.76524259     0.84700
N292        N  0.48503081  0.75114848  0.78506318    -0.77800
C293        C  0.51084696  0.74705434  0.45697150     0.82200
N294        N  0.51885224  0.73151043  0.46635208    -0.76100
C295        C  0.51843384  0.73066823  0.48615268     0.84700
N296        N  0.51006014  0.74532257  0.49652319    -0.76000
C297        C  0.50207964  0.76084552  0.48724039     0.84700
N298        N  0.50241629  0.76171923  0.46742845    -0.77800
C299        C  0.74972479  0.79401698  0.50205041     0.82200
N300        N  0.75920804  0.78422882  0.48757232    -0.76100
C301        C  0.76036561  0.76445037  0.48806255     0.84700
N302        N  0.75209010  0.75450570  0.50302698    -0.76000
C303        C  0.74264243  0.76420853  0.51751184     0.84700
N304        N  0.74143857  0.78399114  0.51703327    -0.77800
C305        C  0.45900291  0.50104559  0.75130860     0.82200
N306        N  0.46856792  0.49137150  0.76576994    -0.76100
C307        C  0.48845838  0.49031447  0.76563909     0.84700
N308        N  0.49873126  0.49885208  0.75102737    -0.76000
C309        C  0.48923495  0.50848330  0.73656196     0.84700
N310        N  0.46935382  0.50958702  0.73669171    -0.77800
C311        C  0.79856520  0.49163457  0.75083982     0.82200
N312        N  0.78848022  0.50556230  0.74092883    -0.76100
C313        C  0.76858763  0.50592983  0.74164200     0.84700
N314        N  0.75881011  0.49240298  0.75226556    -0.76000
C315        C  0.76881205  0.47848201  0.76217610     0.84700
N316        N  0.78871824  0.47809820  0.76149621    -0.77800
C317        C  0.75652617  0.45406094  0.49936859     0.82200
N318        N  0.74232548  0.46405843  0.50906011    -0.76100
C319        C  0.74264860  0.48386190  0.50944679     0.84700
N320        N  0.75718805  0.49365075  0.50018094    -0.76000
C321        C  0.77140601  0.48372678  0.49050046     0.84700
N322        N  0.77108122  0.46390560  0.49008136    -0.77800
C323        C  0.70953960  0.49995817  0.25248097     0.82200
N324        N  0.71934417  0.48573997  0.24263878    -0.76100
C325        C  0.73925381  0.48568909  0.24236697     0.84700
N326        N  0.74933240  0.49985155  0.25191951    -0.76000
C327        C  0.73961451  0.51407404  0.26175465     0.84700
N328        N  0.71969025  0.51413326  0.26205415    -0.77800
O329        O  0.11596002  0.35589383  0.66726936    -0.76500
C330        C  0.16778553  0.39234988  0.65887905     0.84500
O331        O  0.09435506  0.40514082  0.62269608    -0.77600
O332        O  0.16161980  0.39683728  0.59650710    -0.79100
O333        O  0.14800377  0.32802747  0.61182722    -0.78900
O334        O  0.11257886  0.33156924  0.64582166    -0.77500
Zn335      Zn  0.12556044  0.37909175  0.65169164     1.55700
O336        O  0.17179468  0.35025902  0.60900585    -0.78900
Cd337      Cd  0.12359801  0.34374424  0.62048410     1.59700
Cd338      Cd  0.11367927  0.38817646  0.60652887     1.59600
O339        O  0.10295366  0.34043359  0.59856356    -0.78900
O340        O  0.13026592  0.37189952  0.62451958    -1.89400
Cd341      Cd  0.15859608  0.37601115  0.61812729     1.59900
O342        O  0.09715491  0.37065403  0.58785407    -0.78900
O343        O  0.17359533  0.38698622  0.64204263    -0.77500
C344        C  0.09280555  0.40768138  0.64106029     0.85000
C345        C  0.11092883  0.33850291  0.66300132     0.84700
O346        O  0.15005530  0.39034985  0.66439792    -0.76500
C347        C  0.16552280  0.33280158  0.60758056     0.85500
O348        O  0.10392821  0.39911018  0.65325977    -0.76600
C349        C  0.09445422  0.35226602  0.58702440     0.85600
C350        C  0.14960448  0.40778986  0.58744640     0.85900
O351        O  0.13109542  0.40661773  0.58976432    -0.79000
O352        O  0.61618978  0.14012511  0.33159133    -0.76500
C353        C  0.66722745  0.10259558  0.34037019     0.84500
O354        O  0.59219585  0.09154484  0.37485942    -0.77600
O355        O  0.65951025  0.09708824  0.40216660    -0.79100
O356        O  0.64831541  0.16674337  0.38769010    -0.78900
O357        O  0.61286481  0.16431506  0.35323064    -0.77500
Zn358      Zn  0.62513752  0.11656521  0.34695884     1.55700
O359        O  0.67117565  0.14370711  0.39150708    -0.78900
Cd360      Cd  0.62361797  0.15173172  0.37853580     1.59700
Cd361      Cd  0.61202205  0.10745133  0.39164372     1.59600
O362        O  0.60340411  0.15539792  0.40077746    -0.78900
O363        O  0.62949665  0.12343804  0.37425906    -1.89400
Cd364      Cd  0.65758783  0.11856872  0.38115406     1.59900
O365        O  0.59657012  0.12524759  0.41105418    -0.78900
O366        O  0.67287089  0.10775029  0.35733683    -0.77500
C367        C  0.59127813  0.08886419  0.35645868     0.85000
C368        C  0.61130529  0.15753356  0.33596917     0.84700
O369        O  0.64962216  0.10495020  0.33457965    -0.76500
C370        C  0.66543113  0.16136264  0.39279438     0.85500
O371        O  0.60314953  0.09696770  0.34466038    -0.76600
C372        C  0.59475265  0.14372955  0.41235448     0.85600
C373        C  0.64702796  0.08616936  0.41058293     0.85900
O374        O  0.62860997  0.08787026  0.40790892    -0.79000
C375        C  0.50361756  0.24450460  0.54911318     0.82200
N376        N  0.49412745  0.25907287  0.53950796    -0.76100
C377        C  0.49504855  0.26011816  0.51971590     0.84700
N378        N  0.50544057  0.24660495  0.50957348    -0.76000
C379        C  0.51493553  0.23205187  0.51906819     0.84700
N380        N  0.51403994  0.23099642  0.53886595    -0.77800
O381        O  0.39581191  0.35456459  0.33735469    -0.76500
C382        C  0.34363554  0.39090852  0.34315422     0.84500
O383        O  0.41640075  0.40505155  0.38087890    -0.77600
O384        O  0.34900537  0.39851490  0.40559389    -0.79100
O385        O  0.36168322  0.32884177  0.39347155    -0.78900
O386        O  0.39729731  0.33032345  0.35897242    -0.77500
Zn387      Zn  0.38568288  0.37814679  0.35199738     1.55700
O388        O  0.33835327  0.35168309  0.39536726    -0.78900
Cd389      Cd  0.38638092  0.34358457  0.38396787     1.59700
Cd390      Cd  0.39703793  0.38822632  0.39715799     1.59600
O391        O  0.40698384  0.34050110  0.40594976    -0.78900
O392        O  0.38036921  0.37179488  0.37922335    -1.89400
Cd393      Cd  0.35196074  0.37667159  0.38486354     1.59900
O394        O  0.41339287  0.37083127  0.41612837    -0.78900
O395        O  0.33743094  0.38646925  0.36010620    -0.77500
C396        C  0.41797387  0.40729825  0.36248307     0.85000
C397        C  0.39999877  0.33704442  0.34186744     0.84700
O398        O  0.36149550  0.38863438  0.33819160    -0.76500
C399        C  0.34431698  0.33421513  0.39769465     0.85500
O400        O  0.40702518  0.39836049  0.35036152    -0.76600
C401        C  0.41571811  0.35240443  0.41729452     0.85600
C402        C  0.36107460  0.40900623  0.41516695     0.85900
O403        O  0.37960374  0.40702904  0.41364776    -0.79000
C404        C  0.54841230  0.49527090  0.25358571     0.82200
N405        N  0.53909069  0.48610267  0.26850997    -0.76100
C406        C  0.51918979  0.48556507  0.26900984     0.84700
N407        N  0.50865411  0.49418376  0.25462723    -0.76000
C408        C  0.51789296  0.50332759  0.23971602     0.84700
N409        N  0.53779501  0.50391496  0.23919624    -0.77800
C410        C  0.49953649  0.74517861  0.95557849     0.82200
N411        N  0.50841822  0.76024950  0.96503370    -0.76100
C412        C  0.50853309  0.76086023  0.98486171     0.84700
N413        N  0.49981360  0.74641219  0.99518222    -0.76000
C414        C  0.49095309  0.73135149  0.98581989     0.84700
N415        N  0.49079601  0.73072530  0.96599080    -0.77800
O416        O  0.36478172  0.57916114  0.11169970    -0.76500
C417        C  0.41588192  0.58552657  0.14893347     0.84500
O418        O  0.34279500  0.62204725  0.16274434    -0.77600
O419        O  0.41080515  0.64765967  0.15581960    -0.79100
O420        O  0.39777086  0.63565566  0.08644636    -0.78900
O421        O  0.36243240  0.60122190  0.08792386    -0.77500
Zn422      Zn  0.37398109  0.59383987  0.13565854     1.55700
O423        O  0.42138852  0.63737757  0.10897226    -0.78900
Cd424      Cd  0.37324830  0.62609200  0.10143695     1.59700
Cd425      Cd  0.36269043  0.63859589  0.14653171     1.59600
O426        O  0.35292953  0.64827454  0.09883777    -0.78900
O427        O  0.37929653  0.62109988  0.12957669    -1.89400
Cd428      Cd  0.40772669  0.62693785  0.13405643     1.59900
O429        O  0.34692386  0.65822033  0.12936881    -0.78900
O430        O  0.42214110  0.60232951  0.14408279    -0.77500
C431        C  0.34095530  0.60359906  0.16435810     0.85000
C432        C  0.36037658  0.58389949  0.09428060     0.84700
O433        O  0.39803522  0.58048531  0.14676315    -0.76500
C434        C  0.41522448  0.63979668  0.09157317     0.85500
O435        O  0.35201294  0.59170866  0.15524981    -0.76600
C436        C  0.34458005  0.65967541  0.11095221     0.85600
C437        C  0.39887400  0.65663033  0.16696430     0.85900
O438        O  0.38032642  0.65459225  0.16565432    -0.79000
C439        C  0.25532729  0.54303958  0.50277288     0.82200
N440        N  0.27030963  0.53326332  0.49401805    -0.76100
C441        C  0.27047597  0.51343536  0.49389707     0.84700
N442        N  0.25566275  0.50343708  0.50245927    -0.76000
C443        C  0.24068827  0.51310792  0.51118698     0.84700
N444        N  0.24050295  0.53293670  0.51135803    -0.77800
O445        O  0.58119667  0.88829641  0.13990730    -0.76500
C446        C  0.58818261  0.85395533  0.08624918     0.84500
O447        O  0.62584877  0.83811409  0.15833499    -0.77600
O448        O  0.65119843  0.84774559  0.09153608    -0.79100
O449        O  0.63659624  0.91657200  0.10670852    -0.78900
O450        O  0.60275781  0.91262185  0.14268141    -0.77500
Zn451      Zn  0.59633419  0.86535469  0.12872235     1.55700
O452        O  0.63939286  0.89460855  0.08270014    -0.78900
Cd453      Cd  0.62788942  0.90049060  0.13075491     1.59700
Cd454      Cd  0.64178129  0.85573853  0.13957815     1.59600
O455        O  0.65030105  0.90319477  0.15094820    -0.78900
O456        O  0.62358481  0.87245764  0.12366565    -1.89400
Cd457      Cd  0.62969968  0.86880535  0.09529511     1.59900
O458        O  0.66070595  0.87275870  0.15626149    -0.78900
O459        O  0.60520587  0.85886502  0.08044157    -0.77500
C460        C  0.60745149  0.83536132  0.15988873     0.85000
C461        C  0.58564058  0.90561273  0.14506657     0.84700
O462        O  0.58289705  0.85555713  0.10403507    -0.76500
C463        C  0.64102600  0.91195893  0.08923784     0.85500
O464        O  0.59503111  0.84426806  0.14926029    -0.76600
C465        C  0.66183701  0.89110342  0.15911637     0.85600
C466        C  0.66071139  0.83686650  0.10324358     0.85900
O467        O  0.65867368  0.83788438  0.12170674    -0.79000
C468        C  0.75292103  0.70417033  0.00076088     0.82200
N469        N  0.74399424  0.71450465  0.01520538    -0.76100
C470        C  0.74468477  0.73430543  0.01513503     0.84700
N471        N  0.75426009  0.74374788  0.00062164    -0.76000
C472        C  0.76317593  0.73351309  0.98616597     0.84700
N473        N  0.76254048  0.71368892  0.98623154    -0.77800
O474        O  0.89177901  0.14004527  0.66974957    -0.76500
C475        C  0.83835817  0.10616133  0.66217234     0.84500
O476        O  0.91151969  0.09127913  0.62465144    -0.77600
O477        O  0.84400995  0.09935301  0.60036352    -0.79100
O478        O  0.85819625  0.16901632  0.61476326    -0.78900
O479        O  0.89396590  0.16500292  0.64902350    -0.77500
Zn480      Zn  0.88092132  0.11739275  0.65418324     1.55700
O481        O  0.83468793  0.14664961  0.61080762    -0.78900
Cd482      Cd  0.88247963  0.15313287  0.62361599     1.59700
Cd483      Cd  0.89217151  0.10864693  0.60894187     1.59600
O484        O  0.90295361  0.15638258  0.60163013    -0.78900
O485        O  0.87586616  0.12493691  0.62724517    -1.89400
Cd486      Cd  0.84744718  0.12112733  0.62105730     1.59900
O487        O  0.90838301  0.12628251  0.59020001    -0.78900
O488        O  0.83238042  0.11157351  0.64543276    -0.77500
C489        C  0.91272360  0.08800906  0.64291335     0.85000
C490        C  0.89652973  0.15756674  0.66585100     0.84700
O491        O  0.85628129  0.10735967  0.66727944    -0.76500
C492        C  0.84091750  0.16413673  0.60966228     0.85500
O493        O  0.90163183  0.09641513  0.65528058    -0.76600
C494        C  0.91116913  0.14467330  0.58971752     0.85600
C495        C  0.85588476  0.08845913  0.59101404     0.85900
O496        O  0.87444090  0.09008389  0.59255321    -0.79000
C497        C  0.71036215  0.99837454  0.75528383     0.82200
N498        N  0.72015401  0.98385802  0.76463683    -0.76100
C499        C  0.74006837  0.98343468  0.76436094     0.84700
N500        N  0.75014163  0.99752670  0.75478073    -0.76000
C501        C  0.74041147  0.01203261  0.74545298     0.84700
N502        N  0.72050961  0.01245549  0.74568805    -0.77800
O503        O  0.86717658  0.91829439  0.89739630    -0.76500
C504        C  0.91881019  0.91016164  0.85971990     0.84500
O505        O  0.84431026  0.87524652  0.84814576    -0.77600
O506        O  0.91163557  0.84806430  0.85385109    -0.79100
O507        O  0.90081846  0.86302402  0.92353066    -0.78900
O508        O  0.86413785  0.89643831  0.92130939    -0.77500
Zn509      Zn  0.87683951  0.90327534  0.87379014     1.55700
O510        O  0.92356193  0.85947049  0.90032198    -0.78900
Cd511      Cd  0.87576827  0.87148024  0.90860872     1.59700
Cd512      Cd  0.86414009  0.85859718  0.86406863     1.59600
O513        O  0.85590713  0.84885667  0.91198129    -0.78900
O514        O  0.88147176  0.87597564  0.88031742    -1.89400
Cd515      Cd  0.90956102  0.86925735  0.87526290     1.59900
O516        O  0.84856437  0.83930904  0.88162741    -0.78900
O517        O  0.92445952  0.89309780  0.86436406    -0.77500
C518        C  0.84327516  0.89363867  0.84567000     0.85000
C519        C  0.86210138  0.91366708  0.91466905     0.84700
O520        O  0.90127972  0.91600306  0.86249869    -0.76500
C521        C  0.91800915  0.85826072  0.91803489     0.85500
O522        O  0.85502244  0.90545973  0.85398352    -0.76600
C523        C  0.84695773  0.83765236  0.90008972     0.85600
C524        C  0.89918775  0.83956117  0.84289983     0.85900
O525        O  0.88076872  0.84223830  0.84453902    -0.79000
O526        O  0.10940217  0.63400004  0.92061440    -0.76500
C527        C  0.14640924  0.58286863  0.91138294     0.84500
O528        O  0.15948009  0.65813897  0.87890216    -0.77600
O529        O  0.15436447  0.59200798  0.85027899    -0.79100
O530        O  0.08377499  0.60313221  0.86197487    -0.78900
O531        O  0.08511133  0.63674849  0.89894411    -0.77500
Zn532      Zn  0.13326373  0.62511770  0.90545646     1.55700
O533        O  0.10711224  0.58055719  0.85818134    -0.78900
Cd534      Cd  0.09845815  0.62719544  0.87336516     1.59700
Cd535      Cd  0.14349165  0.63904024  0.86139173     1.59600
O536        O  0.09551314  0.64874854  0.85245854    -0.78900
O537        O  0.12686800  0.62132301  0.87795640    -1.89400
Cd538      Cd  0.13185673  0.59352141  0.87039772     1.59900
O539        O  0.12602831  0.65548315  0.84267462    -0.78900
O540        O  0.14150587  0.57760177  0.89421808    -0.77500
C541        C  0.16176649  0.65864921  0.89736180     0.85000
C542        C  0.09182275  0.63848585  0.91623249     0.84700
O543        O  0.14428809  0.60034381  0.91743695    -0.76500
C544        C  0.08946933  0.58637262  0.85619383     0.85500
O545        O  0.15319044  0.64670014  0.90870061    -0.76600
C546        C  0.10751388  0.65778036  0.84148641     0.85600
C547        C  0.16532407  0.60457788  0.84207788     0.85900
O548        O  0.16330302  0.62288097  0.84478509    -0.79000
C549        C  0.00342863  0.74990355  0.70958022     0.82200
N550        N  0.01792904  0.74055228  0.71946740    -0.76100
C551        C  0.01798975  0.74061353  0.73929953     0.84700
N552        N  0.00354174  0.74995465  0.74919596    -0.76000
C553        C  0.98905004  0.75928006  0.73937811     0.84700
N554        N  0.98898044  0.75926725  0.71955181    -0.77800
C555        C  0.95956568  0.49681573  0.74567083     0.82200
N556        N  0.96918229  0.48798603  0.73068830    -0.76100
C557        C  0.98906138  0.48859623  0.72985809     0.84700
N558        N  0.99931034  0.49796160  0.74403341    -0.76000
C559        C  0.98978719  0.50678371  0.75902787     0.84700
N560        N  0.96988167  0.50621461  0.75985972    -0.77800
C561        C  0.29788061  0.50187323  0.74912668     0.82200
N562        N  0.28804467  0.48750300  0.73951270    -0.76100
C563        C  0.26812000  0.48723701  0.73964916     0.84700
N564        N  0.25809367  0.50133123  0.74936718    -0.76000
C565        C  0.26786580  0.51568127  0.75896027     0.84700
N566        N  0.28776970  0.51594868  0.75885436    -0.77800
C567        C  0.75061092  0.95432131  0.50235743     0.82200
N568        N  0.73654605  0.96447286  0.49266998    -0.76100
C569        C  0.73675250  0.98427572  0.49288566     0.84700
N570        N  0.75102358  0.99391333  0.50276233    -0.76000
C571        C  0.76510012  0.98384228  0.51244942     0.84700
N572        N  0.76490643  0.96401455  0.51226338    -0.77800
C573        C  0.00230545  0.24699591  0.45571698     0.82200
N574        N  0.01152036  0.26177046  0.46532865    -0.76100
C575        C  0.01160564  0.26220907  0.48516287     0.84700
N576        N  0.00252343  0.24788652  0.49533630    -0.76000
C577        C  0.99333853  0.23311831  0.48582364     0.84700
N578        N  0.99318740  0.23267169  0.46598819    -0.77800
C579        C  0.00697761  0.24725310  0.79532139     0.82200
N580        N  0.02111558  0.25659954  0.78497040    -0.76100
C581        C  0.02109315  0.25567057  0.76516653     0.84700
N582        N  0.00690957  0.24547532  0.75574095    -0.76000
C583        C  0.99277571  0.23613529  0.76602427     0.84700
N584        N  0.99278283  0.23702964  0.78583687    -0.77800
C585        C  0.50825328  0.74623578  0.29656705     0.82200
N586        N  0.49326732  0.73729322  0.28697763    -0.76100
C587        C  0.49287220  0.73714661  0.26714467     0.84700
N588        N  0.50744909  0.74589602  0.25695914    -0.76000
C589        C  0.52242147  0.75480603  0.26647833     0.84700
N590        N  0.52282652  0.75500514  0.28629864    -0.77800
C591        C  0.79693463  0.99056932  0.25339391     0.82200
N592        N  0.78709161  0.97657605  0.24324047    -0.76100
C593        C  0.76719193  0.97706772  0.24229295     0.84700
N594        N  0.75718924  0.99155200  0.25142952    -0.76000
C595        C  0.76693731  0.00554672  0.26154400     0.84700
N596        N  0.78683151  0.00506798  0.26252614    -0.77800
C597        C  0.25520980  0.78946638  0.00232663     0.82200
N598        N  0.26480764  0.77997477  0.01687569    -0.76100
C599        C  0.26503383  0.76016713  0.01727891     0.84700
N600        N  0.25564180  0.74986918  0.00314809    -0.76000
C601        C  0.24604955  0.75928665  0.98859070     0.84700
N602        N  0.24579880  0.77910801  0.98819691    -0.77800
C603        C  0.75352195  0.29374467  0.49965065     0.82200
N604        N  0.76228398  0.28416754  0.51465867    -0.76100
C605        C  0.76237067  0.26435799  0.51501219     0.84700
N606        N  0.75372884  0.25415513  0.50035880    -0.76000
C607        C  0.74498686  0.26366056  0.48534710     0.84700
N608        N  0.74486232  0.28347805  0.48498995    -0.77800
C609        C  0.20978390  0.49316962  0.25080921     0.82200
N610        N  0.22043192  0.47895275  0.25974269    -0.76100
C611        C  0.24035891  0.47970006  0.25950398     0.84700
N612        N  0.24956968  0.49467429  0.25041677    -0.76000
C613        C  0.23903675  0.50888891  0.24151525     0.84700
N614        N  0.21912313  0.50813991  0.24170499    -0.77800
C615        C  0.25429810  0.45292473  0.00259897     0.82200
N616        N  0.26859527  0.46283529  0.01226023    -0.76100
C617        C  0.26837449  0.48264753  0.01264332     0.84700
N618        N  0.25387761  0.49251861  0.00337828    -0.76000
C619        C  0.23957014  0.48268979  0.99373987     0.84700
N620        N  0.23978914  0.46286787  0.99331166    -0.77800
C621        C  0.45654257  0.99589733  0.25572303     0.82200
N622        N  0.46628554  0.98607503  0.24143279    -0.76100
C623        C  0.48620698  0.98575966  0.24134740     0.84700
N624        N  0.49633247  0.99526891  0.25551130    -0.76000
C625        C  0.48666915  0.00506807  0.26978944     0.84700
N626        N  0.46675679  0.00542167  0.26988350    -0.77800
C627        C  0.50200126  0.24666150  0.20606988     0.82200
N628        N  0.51645749  0.23688886  0.21559642    -0.76100
C629        C  0.51709895  0.23706146  0.23541142     0.84700
N630        N  0.50330446  0.24696832  0.24566333    -0.76000
C631        C  0.48885860  0.25673166  0.23622389     0.84700
N632        N  0.48819228  0.25660450  0.21639744    -0.77800
C633        C  0.25648290  0.20081541  0.50318620     0.82200
N634        N  0.24722232  0.21037965  0.51793815    -0.76100
C635        C  0.24706661  0.23018051  0.51835918     0.84700
N636        N  0.25612669  0.24038626  0.50404311    -0.76000
C637        C  0.26537236  0.23090174  0.48929320     0.84700
N638        N  0.26557855  0.21108360  0.48885024    -0.77800
C639        C  0.00593284  0.74886422  0.04754434     0.82200
N640        N  0.99739501  0.76375770  0.03760587    -0.76100
C641        C  0.99733805  0.76367421  0.01777775     0.84700
N642        N  0.00578674  0.74868674  0.00790857    -0.76000
C643        C  0.01430825  0.73377789  0.01776939     0.84700
N644        N  0.01441324  0.73387604  0.03760971    -0.77800
C645        C  0.75041109  0.04282638  0.00274130     0.82200
N646        N  0.76454741  0.03266373  0.99310929    -0.76100
C647        C  0.76383235  0.01286458  0.99247727     0.84700
N648        N  0.74898869  0.00326429  0.00146104    -0.76000
C649        C  0.73484725  0.01336038  0.01107270     0.84700
N650        N  0.73555945  0.03315734  0.01173075    -0.77800
C651        C  0.04610071  0.99783609  0.74583773     0.82200
N652        N  0.03666494  0.98842936  0.76052934    -0.76100
C653        C  0.01676609  0.98793775  0.76090933     0.84700
N654        N  0.00633689  0.99680724  0.74658548    -0.76000
C655        C  0.01571330  0.00618472  0.73188803     0.84700
N656        N  0.03561445  0.00671527  0.73151103    -0.77800
C657        C  0.21609885  0.72547878  0.94943410     0.19000
C658        C  0.19565618  0.72429559  0.95109227    -0.10100
C659        C  0.18506519  0.71136802  0.93926747    -0.11000
C660        C  0.19483468  0.69951287  0.92568986     0.20600
C661        C  0.21526300  0.70085671  0.92384455    -0.13000
C662        C  0.22586874  0.71380281  0.93568577    -0.11300
C663        C  0.18391891  0.68545618  0.91432429     0.01500
C664        C  0.17418412  0.67334764  0.90589844    -0.31300
C665        C  0.22701508  0.73811819  0.96235872     0.02900
C666        C  0.23581273  0.74816752  0.97393311    -0.33000
H667        H  0.18793145  0.73317375  0.96170674     0.14000
H668        H  0.16929863  0.71041925  0.94090338     0.13800
H669        H  0.22300508  0.69172149  0.91346546     0.13600
H670        H  0.24167113  0.71451783  0.93430674     0.12700
C671        C  0.20036693  0.51672994  0.96439740     0.19000
C672        C  0.18114021  0.52030103  0.97073624    -0.10100
C673        C  0.16919837  0.53350222  0.96060533    -0.11000
C674        C  0.17643429  0.54320165  0.94411474     0.20600
C675        C  0.19563352  0.53956750  0.93777937    -0.13000
C676        C  0.20754565  0.52639542  0.94788462    -0.11300
C677        C  0.16437693  0.55697258  0.93364935     0.01500
C678        C  0.15541053  0.56872795  0.92402710    -0.31300
C679        C  0.21299769  0.50360020  0.97500651     0.02900
C680        C  0.22458679  0.49344214  0.98361909    -0.33000
H681        H  0.17544414  0.51298748  0.98352168     0.14000
H682        H  0.15438518  0.53619524  0.96566666     0.13800
H683        H  0.20141291  0.54697203  0.92507955     0.13600
H684        H  0.22240406  0.52383122  0.94287837     0.12700
C685        C  0.04149504  0.69243643  0.98435016     0.19000
C686        C  0.03137279  0.67671498  0.97591452    -0.10100
C687        C  0.04091761  0.66427182  0.96270636    -0.11000
C688        C  0.06062382  0.66749793  0.95787085     0.20600
C689        C  0.07077656  0.68307124  0.96650444    -0.13000
C690        C  0.06125227  0.69548760  0.97968155    -0.11300
C691        C  0.07035756  0.65543980  0.94353573     0.01500
C692        C  0.07952002  0.64675679  0.93117035    -0.31300
C693        C  0.03152171  0.70596093  0.99712547     0.02900
C694        C  0.02354837  0.71819482  0.00706684    -0.33000
H695        H  0.01607227  0.67424641  0.97933192     0.14000
H696        H  0.03287922  0.65233333  0.95608411     0.13800
H697        H  0.08598155  0.68577693  0.96284053     0.13600
H698        H  0.06922087  0.70762882  0.98601827     0.12700
C699        C  0.23368765  0.55519148  0.78780454     0.19000
C700        C  0.21413062  0.55657502  0.78168199    -0.10100
C701        C  0.20092214  0.56840249  0.79190147    -0.11000
C702        C  0.20717624  0.57894882  0.80830921     0.20600
C703        C  0.22681017  0.57780186  0.81429231    -0.13000
C704        C  0.24004376  0.56595480  0.80405222    -0.11300
C705        C  0.19312677  0.58990093  0.81961369     0.01500
C706        C  0.18066908  0.59757040  0.82951890    -0.31300
C707        C  0.24690105  0.54213313  0.77780912     0.02900
C708        C  0.25701879  0.53042645  0.76930081    -0.33000
H709        H  0.20901984  0.54826827  0.76919814     0.14000
H710        H  0.18576034  0.56904680  0.78722135     0.13800
H711        H  0.23178983  0.58577258  0.82704263     0.13600
H712        H  0.25510706  0.56494882  0.80897303     0.12700
C713        C  0.02424819  0.53487983  0.79905568     0.19000
C714        C  0.03473164  0.52443069  0.81322562    -0.10100
C715        C  0.04774890  0.53415795  0.82576080    -0.11000
C716        C  0.05036597  0.55438983  0.82419679     0.20600
C717        C  0.03983994  0.56481141  0.81005435    -0.13000
C718        C  0.02684483  0.55509992  0.79753997    -0.11300
C719        C  0.06406354  0.56452088  0.83674106     0.01500
C720        C  0.07560578  0.57392814  0.84631224    -0.31300
C721        C  0.01124819  0.52487291  0.78571993     0.02900
C722        C  0.00093982  0.51666565  0.77392102    -0.33000
H723        H  0.03294187  0.50878511  0.81449431     0.14000
H724        H  0.05583913  0.52590222  0.83656915     0.13800
H725        H  0.04176779  0.58042881  0.80862496     0.13600
H726        H  0.01892202  0.56334340  0.78659970     0.12700
C727        C  0.05754111  0.71149184  0.77309055     0.19000
C728        C  0.05606338  0.69115904  0.77449442    -0.10100
C729        C  0.06756386  0.68098419  0.78797479    -0.11000
C730        C  0.08062570  0.69106768  0.80016301     0.20600
C731        C  0.08230866  0.71138968  0.79860453    -0.13000
C732        C  0.07078757  0.72158328  0.78509829    -0.11300
C733        C  0.09163046  0.68051391  0.81469767     0.01500
C734        C  0.09963703  0.67070012  0.82695767    -0.31300
C735        C  0.04473774  0.72199390  0.76005870     0.02900
C736        C  0.03303427  0.73052950  0.74997723    -0.33000
H737        H  0.04579970  0.68320247  0.76538486     0.14000
H738        H  0.06606423  0.66529578  0.78909346     0.13800
H739        H  0.09229380  0.71936458  0.80799952     0.13600
H740        H  0.07198073  0.73731170  0.78423128     0.12700
C741        C  0.95786921  0.94144050  0.82761149     0.19000
C742        C  0.97178621  0.95469463  0.83479553    -0.10100
C743        C  0.98486123  0.96384377  0.82196329    -0.11000
C744        C  0.98408216  0.95973521  0.80190341     0.20600
C745        C  0.97027808  0.94636273  0.79478678    -0.13000
C746        C  0.95723379  0.93724312  0.80758291    -0.11300
C747        C  0.99691723  0.96960923  0.78844164     0.01500
C748        C  0.00660392  0.97791637  0.77628651    -0.31300
C749        C  0.94425489  0.93194230  0.84059179     0.02900
C750        C  0.93258398  0.92281830  0.85017067    -0.33000
H751        H  0.97247271  0.95801253  0.85026406     0.14000
H752        H  0.99543543  0.97418326  0.82763387     0.13800
H753        H  0.96949461  0.94309361  0.77930845     0.13600
H754        H  0.94660317  0.92698688  0.80185621     0.12700
C755        C  0.80459741  0.97941811  0.96430518     0.19000
C756        C  0.80269537  0.97580427  0.94424859    -0.10100
C757        C  0.81564921  0.96304487  0.93483788    -0.11000
C758        C  0.83059390  0.95380465  0.94540906     0.20600
C759        C  0.83259505  0.95751216  0.96544693    -0.13000
C760        C  0.81962788  0.97029030  0.97486830    -0.11300
C761        C  0.84334851  0.94006779  0.93571500     0.01500
C762        C  0.85280278  0.92819273  0.92668572    -0.31300
C763        C  0.79077534  0.99200440  0.97410929     0.02900
C764        C  0.77873604  0.00195129  0.98238171    -0.33000
H765        H  0.79109699  0.98269282  0.93593637     0.14000
H766        H  0.81388769  0.96022974  0.91936036     0.13800
H767        H  0.84402123  0.95039591  0.97379918     0.13600
H768        H  0.82119935  0.97290021  0.99039859     0.12700
C769        C  0.97052643  0.80542021  0.98480598     0.19000
C770        C  0.98130186  0.81865284  0.97349270    -0.10100
C771        C  0.97165120  0.83108319  0.96041133    -0.11000
C772        C  0.95118515  0.83031837  0.95860991     0.20600
C773        C  0.94043300  0.81731356  0.97016256    -0.13000
C774        C  0.95005867  0.80491176  0.98320491    -0.11300
C775        C  0.94110405  0.84206422  0.94434200     0.01500
C776        C  0.93127943  0.85037724  0.93228486    -0.31300
C777        C  0.98039649  0.79167865  0.99733385     0.02900
C778        C  0.98822334  0.77929118  0.00712372    -0.33000
H779        H  0.99714933  0.81912324  0.97453845     0.14000
H780        H  0.98013418  0.84101142  0.95150506     0.13800
H781        H  0.92461660  0.81652047  0.96884052     0.13600
H782        H  0.94157455  0.79469939  0.99178619     0.12700
C783        C  0.94876800  0.78648886  0.77391114     0.19000
C784        C  0.94746682  0.77970998  0.79315296    -0.10100
C785        C  0.93562257  0.78943550  0.80670625    -0.11000
C786        C  0.92499077  0.80599214  0.80109610     0.20600
C787        C  0.92601942  0.81259230  0.78176523    -0.13000
C788        C  0.93787996  0.80285565  0.76819509    -0.11300
C789        C  0.91412866  0.81690475  0.81547931     0.01500
C790        C  0.90644198  0.82677452  0.82791726    -0.31300
C791        C  0.96196114  0.77711456  0.76040243     0.02900
C792        C  0.97389648  0.76912116  0.75013422    -0.33000
H793        H  0.95588254  0.76712564  0.79776422     0.14000
H794        H  0.93506435  0.78428412  0.82163588     0.13800
H795        H  0.91797772  0.82546431  0.77729588     0.13600
H796        H  0.93883198  0.80828056  0.75338546     0.12700
C797        C  0.77377027  0.94343621  0.79291135     0.19000
C798        C  0.78934590  0.93457651  0.78289052    -0.10100
C799        C  0.80288255  0.92300820  0.79298666    -0.11000
C800        C  0.80092119  0.92023048  0.81315534     0.20600
C801        C  0.78515858  0.92882454  0.82311153    -0.13000
C802        C  0.77162760  0.94039068  0.81301915    -0.11300
C803        C  0.81557934  0.90945952  0.82383209     0.01500
C804        C  0.82814599  0.90154324  0.83338683    -0.31300
C805        C  0.76068520  0.95649772  0.78278969     0.02900
C806        C  0.75065095  0.96833195  0.77440138    -0.33000
H807        H  0.79122869  0.93690731  0.76737386     0.14000
H808        H  0.81506034  0.91653354  0.78513838     0.13800
H809        H  0.78353885  0.92687926  0.83871236     0.13600
H810        H  0.75972056  0.94724689  0.82095534     0.12700
C811        C  0.92690595  0.18827936  0.70694921     0.19000
C812        C  0.93383778  0.17859550  0.72358615    -0.10100
C813        C  0.94638458  0.18818613  0.73663780    -0.11000
C814        C  0.95206203  0.20750624  0.73310562     0.20600
C815        C  0.94496894  0.21724390  0.71657394    -0.13000
C816        C  0.93243211  0.20765854  0.70352959    -0.11300
C817        C  0.96572456  0.21714666  0.74596009     0.01500
C818        C  0.97776137  0.22556749  0.75576698    -0.31300
C819        C  0.91488811  0.17807142  0.69295079     0.02900
C820        C  0.90581394  0.16906665  0.68077770    -0.33000
H821        H  0.92976339  0.16356982  0.72632008     0.14000
H822        H  0.95184658  0.18047730  0.74931110     0.13800
H823        H  0.94933444  0.23214955  0.71363747     0.13600
H824        H  0.92727284  0.21525563  0.69066300     0.12700
C825        C  0.94447415  0.17256067  0.54907697     0.19000
C826        C  0.94394001  0.19296601  0.55027229    -0.10100
C827        C  0.95404200  0.20427101  0.53662030    -0.11000
C828        C  0.96474833  0.19526858  0.52164425     0.20600
C829        C  0.96539380  0.17484681  0.52047599    -0.13000
C830        C  0.95526145  0.16351094  0.53416336    -0.11300
C831        C  0.97505378  0.20715440  0.50766489     0.01500
C832        C  0.98343855  0.21834506  0.49695105    -0.31300
C833        C  0.93364536  0.16110675  0.56302432     0.02900
C834        C  0.92381424  0.15277731  0.57505165    -0.33000
H835        H  0.93564548  0.20013920  0.56171557     0.14000
H836        H  0.95346717  0.22003373  0.53771430     0.13800
H837        H  0.97366260  0.16771400  0.50899506     0.13600
H838        H  0.95577362  0.14774979  0.53307759     0.12700
C839        C  0.98098768  0.03331735  0.69172933     0.19000
C840        C  0.98548023  0.05201806  0.68483915    -0.10100
C841        C  0.97206888  0.06205473  0.67309748    -0.11000
C842        C  0.95408612  0.05344539  0.66817377     0.20600
C843        C  0.94975664  0.03458118  0.67473202    -0.13000
C844        C  0.96317624  0.02453805  0.68647477    -0.11300
C845        C  0.93962142  0.06451226  0.65756933     0.01500
C846        C  0.92734609  0.07472417  0.65005545    -0.31300
C847        C  0.99414059  0.02357453  0.70499540     0.02900
C848        C  0.00445500  0.01563292  0.71689455    -0.33000
H849        H  0.99915975  0.05899524  0.68886987     0.14000
H850        H  0.97552758  0.07667316  0.66822712     0.13800
H851        H  0.93585001  0.02781808  0.67113226     0.13600
H852        H  0.95950044  0.01012488  0.69177933     0.12700
C853        C  0.80779109  0.20504919  0.58192016     0.19000
C854        C  0.81528374  0.22390153  0.57924186    -0.10100
C855        C  0.80568283  0.23702375  0.56684763    -0.11000
C856        C  0.78854351  0.23134500  0.55706560     0.20600
C857        C  0.78085494  0.21262757  0.56004983    -0.13000
C858        C  0.79044862  0.19951667  0.57242991    -0.11300
C859        C  0.77936238  0.24425032  0.54320950     0.01500
C860        C  0.77167130  0.25404520  0.53074494    -0.31300
C861        C  0.81854074  0.19098777  0.59331933     0.02900
C862        C  0.82828270  0.17882670  0.60157019    -0.33000
H863        H  0.82875372  0.22830960  0.58639970     0.14000
H864        H  0.81181626  0.25141519  0.56459760     0.13800
H865        H  0.76766315  0.20803536  0.55250218     0.13600
H866        H  0.78458234  0.18495566  0.57427316     0.12700
C867        C  0.80516814  0.01796920  0.54058819     0.19000
C868        C  0.80936307  0.01607998  0.56052604    -0.10100
C869        C  0.82116372  0.02992335  0.56994155    -0.11000
C870        C  0.82882865  0.04573783  0.55947603     0.20600
C871        C  0.82489642  0.04744662  0.53947456    -0.13000
C872        C  0.81310426  0.03360369  0.53006023    -0.11300
C873        C  0.83979475  0.06070636  0.56950398     0.01500
C874        C  0.84784506  0.07343626  0.57871425    -0.31300
C875        C  0.79194538  0.00452476  0.53111024     0.02900
C876        C  0.78009661  0.99435677  0.52283181    -0.33000
H877        H  0.80323806  0.00412410  0.56885248     0.14000
H878        H  0.82400973  0.02849749  0.58543226     0.13800
H879        H  0.83064056  0.05965359  0.53124554     0.13600
H880        H  0.80988671  0.03528341  0.51466823     0.12700
C881        C  0.77445124  0.05140889  0.71653054     0.19000
C882        C  0.77026637  0.07138944  0.71510192    -0.10100
C883        C  0.78305524  0.08379085  0.70502086    -0.11000
C884        C  0.80008323  0.07623947  0.69636846     0.20600
C885        C  0.80426370  0.05628777  0.69788467    -0.13000
C886        C  0.79150811  0.04392065  0.70793156    -0.11300
C887        C  0.81310815  0.08865542  0.68545457     0.01500
C888        C  0.82450338  0.09756591  0.67538255    -0.31300
C889        C  0.76139514  0.03846397  0.72677814     0.02900
C890        C  0.75129771  0.02678820  0.73527209    -0.33000
H891        H  0.75712156  0.07735084  0.72170737     0.14000
H892        H  0.77963258  0.09917456  0.70388745     0.13800
H893        H  0.81734325  0.05026521  0.69119778     0.13600
H894        H  0.79490932  0.02851974  0.70894230     0.12700
C895        C  0.81419575  0.79484491  0.92558312     0.19000
C896        C  0.82409188  0.77993301  0.93551857    -0.10100
C897        C  0.81355966  0.76615718  0.94632241    -0.11000
C898        C  0.79305958  0.76718553  0.94725928     0.20600
C899        C  0.78313139  0.78190024  0.93705301    -0.13000
C900        C  0.79366997  0.79568403  0.92624181    -0.11300
C901        C  0.78236260  0.75393645  0.95965298     0.01500
C902        C  0.77358181  0.74386345  0.97114902    -0.31300
C903        C  0.82516900  0.80972794  0.91549174     0.02900
C904        C  0.83479990  0.82242765  0.90794427    -0.33000
H905        H  0.83995161  0.77916390  0.93519782     0.14000
H906        H  0.82142054  0.75494261  0.95424435     0.13800
H907        H  0.76730042  0.78293898  0.93775922     0.13600
H908        H  0.78584515  0.80717903  0.91869525     0.12700
C909        C  0.51997072  0.95751736  0.20101823     0.19000
C910        C  0.54022825  0.96068362  0.20244037    -0.10100
C911        C  0.55312996  0.95080694  0.18998074    -0.11000
C912        C  0.54587480  0.93770378  0.17599534     0.20600
C913        C  0.52560103  0.93467183  0.17443082    -0.13000
C914        C  0.51268278  0.94456146  0.18690628    -0.11300
C915        C  0.55930396  0.92687192  0.16382360     0.01500
C916        C  0.57103832  0.91740833  0.15459363    -0.31300
C917        C  0.50683754  0.96723500  0.21438876     0.02900
C918        C  0.49675849  0.97551492  0.22630450    -0.33000
H919        H  0.54605268  0.97062418  0.21330577     0.14000
H920        H  0.56877199  0.95322166  0.19140164     0.13800
H921        H  0.51981407  0.92452550  0.16374257     0.13600
H922        H  0.49705845  0.94195658  0.18568188     0.12700
C923        C  0.70446131  0.91646185  0.19235069     0.19000
C924        C  0.72163867  0.92258773  0.18295337    -0.10100
C925        C  0.73559223  0.93365609  0.19309205    -0.11000
C926        C  0.73245017  0.93865643  0.21269598     0.20600
C927        C  0.71540504  0.93228316  0.22217167    -0.13000
C928        C  0.70145052  0.92122141  0.21203203    -0.11300
C929        C  0.74613801  0.95113271  0.22283130     0.01500
C930        C  0.75651644  0.96247323  0.23154040    -0.31300
C931        C  0.68954239  0.90618798  0.18150773     0.02900
C932        C  0.67689954  0.89864449  0.17172662    -0.33000
H933        H  0.72408307  0.91909645  0.16771177     0.14000
H934        H  0.74864228  0.93858271  0.18556736     0.13800
H935        H  0.71274857  0.93614724  0.23728864     0.13600
H936        H  0.68818869  0.91667386  0.21943045     0.12700
C937        C  0.69320448  0.98008655  0.03775529     0.19000
C938        C  0.68570981  0.98447914  0.05630093    -0.10100
C939        C  0.67338153  0.97120606  0.06578280    -0.11000
C940        C  0.66847908  0.95347191  0.05676594     0.20600
C941        C  0.67569273  0.94924325  0.03807798    -0.13000
C942        C  0.68801093  0.96251195  0.02859863    -0.11300
C943        C  0.65714133  0.93913199  0.06719572     0.01500
C944        C  0.64895671  0.92679328  0.07673440    -0.31300
C945        C  0.70697990  0.99305900  0.02849752     0.02900
C946        C  0.71931069  0.00293834  0.02065031    -0.33000
H947        H  0.68968841  0.99797180  0.06357513     0.14000
H948        H  0.66800880  0.97458454  0.08027845     0.13800
H949        H  0.67212434  0.93553054  0.03100765     0.13600
H950        H  0.69378214  0.95890665  0.01431038     0.12700
C951        C  0.56192835  0.78152654  0.23092227     0.19000
C952        C  0.56597526  0.77249831  0.21297850    -0.10100
C953        C  0.57678771  0.78236906  0.19873151    -0.11000
C954        C  0.58361175  0.80131399  0.20236004     0.20600
C955        C  0.57995384  0.81016462  0.22047386    -0.13000
C956        C  0.56913487  0.80029753  0.23471713    -0.11300
C957        C  0.59328057  0.81215727  0.18716198     0.01500
C958        C  0.60030304  0.82218383  0.17451511    -0.31300
C959        C  0.54930503  0.77203646  0.24482548     0.02900
C960        C  0.53758817  0.76419878  0.25540785    -0.33000
H961        H  0.56038750  0.75803729  0.20983819     0.14000
H962        H  0.57943636  0.77541183  0.18475131     0.13800
H963        H  0.58507019  0.82483987  0.22340925     0.13600
H964        H  0.56600844  0.80747190  0.24848819     0.12700
C965        C  0.71730468  0.76944139  0.05475808     0.19000
C966        C  0.72308077  0.78906693  0.05517951    -0.10100
C967        C  0.71260793  0.80260991  0.06639632    -0.11000
C968        C  0.69630117  0.79660419  0.07726672     0.20600
C969        C  0.69079286  0.77689720  0.07719928    -0.13000
C970        C  0.70126759  0.76334824  0.06597302    -0.11300
C971        C  0.68456979  0.81080154  0.08754015     0.01500
C972        C  0.67404154  0.82273840  0.09519046    -0.31300
C973        C  0.72715146  0.75589078  0.04195699     0.02900
C974        C  0.73515668  0.74542894  0.03020929    -0.33000
H975        H  0.73540692  0.79396907  0.04651525     0.14000
H976        H  0.71696488  0.81781078  0.06626212     0.13800
H977        H  0.67816696  0.77209052  0.08548031     0.13600
H978        H  0.69661555  0.74823720  0.06571290     0.12700
C979        C  0.27179944  0.55067675  0.21435172     0.19000
C980        C  0.27190892  0.55203457  0.19393622    -0.10100
C981        C  0.28523368  0.56440689  0.18456219    -0.11000
C982        C  0.29856583  0.57552614  0.19550988     0.20600
C983        C  0.29827605  0.57439027  0.21594895    -0.13000
C984        C  0.28493418  0.56200774  0.22533310    -0.11300
C985        C  0.31314324  0.58721630  0.18565894     0.01500
C986        C  0.32570365  0.59564346  0.17651299    -0.31300
C987        C  0.25896245  0.53692439  0.22391524     0.02900
C988        C  0.24917055  0.52457837  0.23186656    -0.33000
H989        H  0.26194171  0.54328780  0.18526274     0.14000
H990        H  0.28536896  0.56503990  0.16875143     0.13800
H991        H  0.30856115  0.58279546  0.22459158     0.13600
H992        H  0.28509525  0.56101713  0.24112259     0.12700
C993        C  0.33280642  0.54283243  0.06103883     0.19000
C994        C  0.32762232  0.54631529  0.04155644    -0.10100
C995        C  0.31564153  0.53306292  0.03154445    -0.11000
C996        C  0.30877506  0.51626419  0.04096564     0.20600
C997        C  0.31422812  0.51262356  0.06034284    -0.13000
C998        C  0.32620976  0.52587098  0.07035106    -0.11300
C999        C  0.29538971  0.50331703  0.03105946     0.01500
C1000       C  0.28342656  0.49331560  0.02275839    -0.31300
C1001       C  0.34393962  0.55711616  0.07183190     0.02900
C1002       C  0.35213477  0.56929729  0.08162794    -0.33000
H1003       H  0.33253588  0.55942656  0.03423342     0.14000
H1004       H  0.31145154  0.53608275  0.01659782     0.13800
H1005       H  0.30894163  0.49974149  0.06781220     0.13600
H1006       H  0.33002641  0.52307426  0.08544033     0.12700
C1007       C  0.31209886  0.70128875  0.08356017     0.19000
C1008       C  0.29479792  0.69564184  0.07406845    -0.10100
C1009       C  0.28511783  0.70866933  0.06167501    -0.11000
C1010       C  0.29267375  0.72743162  0.05865700     0.20600
C1011       C  0.30981315  0.73321790  0.06838880    -0.13000
C1012       C  0.31950973  0.72016775  0.08080452    -0.11300
C1013       C  0.28323759  0.74029404  0.04491630     0.01500
C1014       C  0.27509050  0.74997171  0.03263911    -0.31300
C1015       C  0.32282507  0.68728605  0.09506600     0.02900
C1016       C  0.33233297  0.67490572  0.10326841    -0.33000
H1017       H  0.28900141  0.68105628  0.07595434     0.14000
H1018       H  0.27193077  0.70399183  0.05417639     0.13800
H1019       H  0.31584609  0.74765083  0.06612002     0.13600
H1020       H  0.33295470  0.72466307  0.08794841     0.12700
C1021       C  0.45130775  0.70973227  0.23415020     0.19000
C1022       C  0.44629640  0.69021419  0.23757166    -0.10100
C1023       C  0.43404234  0.68027178  0.22451338    -0.11000
C1024       C  0.42671166  0.68978265  0.20794666     0.20600
C1025       C  0.43149359  0.70939174  0.20466357    -0.13000
C1026       C  0.44375334  0.71934134  0.21773189    -0.11300
C1027       C  0.41524849  0.67906788  0.19382741     0.01500
C1028       C  0.40690917  0.66929203  0.18170500    -0.31300
C1029       C  0.46496748  0.71956149  0.24689942     0.02900
C1030       C  0.47724804  0.72758923  0.25675865    -0.33000
H1031       H  0.45213066  0.68258746  0.25013665     0.14000
H1032       H  0.43057280  0.66508403  0.22714542     0.13800
H1033       H  0.42603850  0.71687306  0.19184400     0.13600
H1034       H  0.44761113  0.73439148  0.21485918     0.12700
C1035       C  0.53482454  0.80243306  0.01854538     0.19000
C1036       C  0.55226902  0.81192057  0.01340855    -0.10100
C1037       C  0.56184578  0.82392118  0.02697031    -0.11000
C1038       C  0.55404628  0.82650418  0.04574076     0.20600
C1039       C  0.53640030  0.81731934  0.05073964    -0.13000
C1040       C  0.52682336  0.80532998  0.03718091    -0.11300
C1041       C  0.56477722  0.83754452  0.06018576     0.01500
C1042       C  0.57480075  0.84568739  0.07225384    -0.31300
C1043       C  0.52566700  0.78890864  0.00518735     0.02900
C1044       C  0.51795950  0.77660602  0.99513215    -0.33000
H1045       H  0.55865413  0.80973610  0.99909836     0.14000
H1046       H  0.57554014  0.83085118  0.02295757     0.13800
H1047       H  0.53027504  0.81909557  0.06521834     0.13600
H1048       H  0.51339237  0.79800380  0.04136527     0.12700
C1049       C  0.44726489  0.66766716  0.04986866     0.19000
C1050       C  0.46661185  0.67401781  0.05257190    -0.10100
C1051       C  0.47561722  0.68580257  0.03851108    -0.11000
C1052       C  0.46533133  0.69131701  0.02166578     0.20600
C1053       C  0.44607985  0.68475289  0.01884594    -0.13000
C1054       C  0.43708083  0.67296853  0.03289652    -0.11300
C1055       C  0.47421760  0.70442740  0.00779400     0.01500
C1056       C  0.48172072  0.71624083  0.99708744    -0.31300
C1057       C  0.43746644  0.65654094  0.06483603     0.02900
C1058       C  0.42808358  0.64821763  0.07723810    -0.33000
H1059       H  0.47461444  0.67012318  0.06566628     0.14000
H1060       H  0.49046819  0.69086252  0.04091681     0.13800
H1061       H  0.43792802  0.68898956  0.00595069     0.13600
H1062       H  0.42208636  0.66825286  0.03067721     0.12700
C1063       C  0.45511202  0.55074750  0.17724531     0.19000
C1064       C  0.44949641  0.53355593  0.18675708    -0.10100
C1065       C  0.46300332  0.52344703  0.19834559    -0.11000
C1066       C  0.48219027  0.53048815  0.20048709     0.20600
C1067       C  0.48785536  0.54755333  0.19079850    -0.13000
C1068       C  0.47435734  0.55765416  0.17921351    -0.11300
C1069       C  0.49575674  0.52068232  0.21328331     0.01500
C1070       C  0.50643784  0.51272251  0.22484282    -0.31300
C1071       C  0.44098888  0.56181877  0.16619758     0.02900
C1072       C  0.42937932  0.57207079  0.15774932    -0.33000
H1073       H  0.43462813  0.52812903  0.18544307     0.14000
H1074       H  0.45842156  0.51032883  0.20584564     0.13800
H1075       H  0.50260897  0.55319940  0.19242240     0.13600
H1076       H  0.47883714  0.57098222  0.17202939     0.12700
C1077       C  0.31129459  0.47908923  0.46712195     0.19000
C1078       C  0.31597186  0.48150879  0.44735725    -0.10100
C1079       C  0.32761339  0.46767715  0.43774341    -0.11000
C1080       C  0.33465224  0.45132686  0.44781561     0.20600
C1081       C  0.33025296  0.44906468  0.46767115    -0.13000
C1082       C  0.31860728  0.46290939  0.47729368    -0.11300
C1083       C  0.34542880  0.43643008  0.43745484     0.01500
C1084       C  0.35329211  0.42387675  0.42783533    -0.31300
C1085       C  0.29809302  0.49254352  0.47663494     0.02900
C1086       C  0.28603876  0.50282108  0.48447991    -0.33000
H1087       H  0.31031794  0.49386842  0.43929720     0.14000
H1088       H  0.33081113  0.46953960  0.42236504     0.13800
H1089       H  0.33550180  0.43644431  0.47559751     0.13600
H1090       H  0.31499658  0.46080270  0.49254789     0.12700
C1091       C  0.48616983  0.45917477  0.31085906     0.19000
C1092       C  0.46794564  0.46771690  0.31494418    -0.10100
C1093       C  0.45463250  0.45828166  0.32725310    -0.11000
C1094       C  0.45948364  0.44025178  0.33556178     0.20600
C1095       C  0.47784629  0.43187303  0.33175779    -0.13000
C1096       C  0.49116319  0.44130989  0.31943929    -0.11300
C1097       C  0.44515847  0.42972897  0.34684178     0.01500
C1098       C  0.43282965  0.42002480  0.35488364    -0.31300
C1099       C  0.49923054  0.46828245  0.29709400     0.02900
C1100       C  0.50908464  0.47601239  0.28470317    -0.33000
H1101       H  0.46387648  0.48147806  0.30830912     0.14000
H1102       H  0.44043357  0.46482696  0.32995465     0.13800
H1103       H  0.48170050  0.41786017  0.33797678     0.13600
H1104       H  0.50515351  0.43451484  0.31631210     0.12700
C1105       C  0.29198214  0.26680677  0.45010503     0.19000
C1106       C  0.29270540  0.28647659  0.45570948    -0.10100
C1107       C  0.30207502  0.30016131  0.44382683    -0.11000
C1108       C  0.31076886  0.29428317  0.42624180     0.20600
C1109       C  0.30988266  0.27464238  0.42051475    -0.13000
C1110       C  0.30049354  0.26093264  0.43241810    -0.11300
C1111       C  0.32141398  0.30825899  0.41466926     0.01500
C1112       C  0.33127109  0.32012407  0.40615380    -0.31300
C1113       C  0.28279331  0.25275805  0.46277068     0.02900
C1114       C  0.27498863  0.24203486  0.47435187    -0.33000
H1115       H  0.28620567  0.29119176  0.46935500     0.14000
H1116       H  0.30276393  0.31527458  0.44847540     0.13800
H1117       H  0.31665052  0.26990207  0.40701164     0.13600
H1118       H  0.30004911  0.24576317  0.42793908     0.12700
C1119       C  0.30489567  0.41934364  0.30774399     0.19000
C1120       C  0.29122774  0.41034971  0.29532796    -0.10100
C1121       C  0.27744321  0.42165784  0.28517893    -0.11000
C1122       C  0.27724091  0.44201378  0.28742315     0.20600
C1123       C  0.29106155  0.45097203  0.29965456    -0.13000
C1124       C  0.30480902  0.43969818  0.30976805    -0.11300
C1125       C  0.26297770  0.45387023  0.27729666     0.01500
C1126       C  0.25192251  0.46499915  0.26915745    -0.31300
C1127       C  0.31863234  0.40786207  0.31896372     0.02900
C1128       C  0.33010175  0.39942556  0.32944256    -0.33000
H1129       H  0.29111063  0.39462852  0.29363510     0.14000
H1130       H  0.26689879  0.41454280  0.27571798     0.13800
H1131       H  0.29112992  0.46668192  0.30147718     0.13600
H1132       H  0.31525660  0.44684666  0.31931660     0.12700
C1133       C  0.45088488  0.28531142  0.27224074     0.19000
C1134       C  0.44828149  0.27719511  0.29082652    -0.10100
C1135       C  0.43690703  0.28690001  0.30480867    -0.11000
C1136       C  0.42805726  0.30478121  0.30028103     0.20600
C1137       C  0.43054346  0.31283376  0.28165016    -0.13000
C1138       C  0.44192593  0.30312664  0.26766295    -0.11300
C1139       C  0.41707786  0.31523358  0.31493891     0.01500
C1140       C  0.40869444  0.32470107  0.32725581    -0.31300
C1141       C  0.46328429  0.27563028  0.25819307     0.02900
C1142       C  0.47447131  0.26722407  0.24741865    -0.33000
H1143       H  0.45521683  0.26347787  0.29457268     0.14000
H1144       H  0.43519575  0.28058191  0.31918701     0.13800
H1145       H  0.42386960  0.32670759  0.27801451     0.13600
H1146       H  0.44390750  0.30959654  0.25338948     0.12700
C1147       C  0.46756569  0.30101355  0.48614547     0.19000
C1148       C  0.47760482  0.30797101  0.46971090    -0.10100
C1149       C  0.46803685  0.32001704  0.45622738    -0.11000
C1150       C  0.44835662  0.32519854  0.45910229     0.20600
C1151       C  0.43843328  0.31851919  0.47571404    -0.13000
C1152       C  0.44799464  0.30647257  0.48918776    -0.11300
C1153       C  0.43797086  0.33637357  0.44453449     0.01500
C1154       C  0.42834814  0.34449904  0.43215636    -0.31300
C1155       C  0.47703188  0.28750804  0.49928160     0.02900
C1156       C  0.48506498  0.27541176  0.50930343    -0.33000
H1157       H  0.49271260  0.30378885  0.46712952     0.14000
H1158       H  0.47585101  0.32497174  0.44340859     0.13800
H1159       H  0.42318501  0.32231602  0.47805992     0.13600
H1160       H  0.44003392  0.30113501  0.50175849     0.12700
C1161       C  0.54889241  0.05589415  0.33027097     0.19000
C1162       C  0.54974074  0.03546627  0.32957478    -0.10100
C1163       C  0.53600850  0.02498335  0.31853793    -0.11000
C1164       C  0.52135579  0.03486922  0.30814162     0.20600
C1165       C  0.52036105  0.05527501  0.30904974    -0.13000
C1166       C  0.53408264  0.06575013  0.32007867    -0.11300
C1167       C  0.50801503  0.02420365  0.29574044     0.01500
C1168       C  0.49767783  0.01543671  0.28440949    -0.31300
C1169       C  0.56362906  0.06682130  0.34073080     0.02900
C1170       C  0.57617705  0.07652828  0.34853157    -0.33000
H1171       H  0.56116621  0.02768048  0.33730792     0.14000
H1172       H  0.53700767  0.00921676  0.31785795     0.13800
H1173       H  0.50918911  0.06309281  0.30098940     0.13600
H1174       H  0.53332260  0.08154134  0.32041973     0.12700
C1175       C  0.70662387  0.07184186  0.30763124     0.19000
C1176       C  0.70134907  0.06319300  0.28981986    -0.10100
C1177       C  0.71439352  0.05060445  0.28025703    -0.11000
C1178       C  0.73280053  0.04656777  0.28844926     0.20600
C1179       C  0.73816134  0.05538655  0.30614657    -0.13000
C1180       C  0.72511873  0.06797609  0.31570791    -0.11300
C1181       C  0.74583504  0.03286121  0.27904466     0.01500
C1182       C  0.75602985  0.02075586  0.27117623    -0.31300
C1183       C  0.69278250  0.08392144  0.31807908     0.02900
C1184       C  0.68110012  0.09310345  0.32767304    -0.33000
H1185       H  0.68706255  0.06596187  0.28346638     0.14000
H1186       H  0.71003406  0.04382774  0.26662924     0.13800
H1187       H  0.75230642  0.05233509  0.31267884     0.13600
H1188       H  0.72934039  0.07447050  0.32951394     0.12700
C1189       C  0.71838571  0.22916532  0.44454559     0.19000
C1190       C  0.69951047  0.23331341  0.43760633    -0.10100
C1191       C  0.68976559  0.21990367  0.42559029    -0.11000
C1192       C  0.69883864  0.20226695  0.42043811     0.20600
C1193       C  0.71784251  0.19826152  0.42711105    -0.13000
C1194       C  0.72759015  0.21167502  0.43912666    -0.11300
C1195       C  0.68820797  0.18787783  0.40926521     0.01500
C1196       C  0.67840773  0.17571203  0.40103005    -0.31300
C1197       C  0.72790563  0.24234332  0.45798458     0.02900
C1198       C  0.73570847  0.25260724  0.47004999    -0.33000
H1199       H  0.69219950  0.24673170  0.44176489     0.14000
H1200       H  0.67503485  0.22311976  0.42062293     0.13800
H1201       H  0.72496863  0.18463625  0.42333036     0.13600
H1202       H  0.74213944  0.20825541  0.44447247     0.12700
C1203       C  0.55762436  0.20818127  0.26820686     0.19000
C1204       C  0.55509472  0.18821963  0.27173212    -0.10100
C1205       C  0.56740246  0.17854252  0.28486075    -0.11000
C1206       C  0.58231556  0.18876403  0.29456233     0.20600
C1207       C  0.58499222  0.20869713  0.29090701    -0.13000
C1208       C  0.57266578  0.21838989  0.27775305    -0.11300
C1209       C  0.59424071  0.17883612  0.30878613     0.01500
C1210       C  0.60289521  0.16962013  0.32105627    -0.31300
C1211       C  0.54422864  0.21829464  0.25548910     0.02900
C1212       C  0.53223709  0.22675390  0.24570134    -0.33000
H1213       H  0.54344660  0.18019989  0.26453823     0.14000
H1214       H  0.56512599  0.16315896  0.28764497     0.13800
H1215       H  0.59640745  0.21677673  0.29839606     0.13600
H1216       H  0.57468410  0.23385271  0.27523196     0.12700
C1217       C  0.56402949  0.17124945  0.45555954     0.19000
C1218       C  0.57484905  0.18283921  0.46858666    -0.10100
C1219       C  0.56522076  0.19428820  0.48258627    -0.11000
C1220       C  0.54469370  0.19421972  0.48366762     0.20600
C1221       C  0.53388707  0.18248468  0.47076777    -0.13000
C1222       C  0.54351488  0.17103860  0.45676604    -0.11300
C1223       C  0.53467539  0.20676892  0.49739925     0.01500
C1224       C  0.52590502  0.21790240  0.50796772    -0.31300
C1225       C  0.57396900  0.16020884  0.44053532     0.02900
C1226       C  0.58291912  0.15196283  0.42770972    -0.33000
H1227       H  0.59071226  0.18321650  0.46775883     0.14000
H1228       H  0.57375277  0.20336338  0.49237867     0.13800
H1229       H  0.51801042  0.18237570  0.47136610     0.13600
H1230       H  0.53496843  0.16223451  0.44674338     0.12700
C1231       C  0.67290934  0.04467860  0.44426442     0.19000
C1232       C  0.68117041  0.04994075  0.46225166    -0.10100
C1233       C  0.69312270  0.03676332  0.47230191    -0.11000
C1234       C  0.69689809  0.01825137  0.46441462     0.20600
C1235       C  0.68837602  0.01285377  0.44657787    -0.13000
C1236       C  0.67641126  0.02604434  0.43651807    -0.11300
C1237       C  0.71017198  0.00521226  0.47426560     0.01500
C1238       C  0.72198309  0.99514868  0.48264810    -0.31300
C1239       C  0.66197663  0.05883495  0.43319619     0.02900
C1240       C  0.65425316  0.07118143  0.42330152    -0.33000
H1241       H  0.67869165  0.06435191  0.46831295     0.14000
H1242       H  0.69969393  0.04112710  0.48603617     0.13800
H1243       H  0.69125285  0.99861062  0.44029841     0.13600
H1244       H  0.67022212  0.02186579  0.42255290     0.12700
C1245       C  0.17638636  0.44932055  0.55438274     0.19000
C1246       C  0.18925893  0.44378304  0.53942495    -0.10100
C1247       C  0.20105232  0.45776033  0.53031194    -0.11000
C1248       C  0.20007208  0.47737511  0.53610588     0.20600
C1249       C  0.18695426  0.48298150  0.55083258    -0.13000
C1250       C  0.17514584  0.46899082  0.55995171    -0.11300
C1251       C  0.21317908  0.49144949  0.52749239     0.01500
C1252       C  0.22518455  0.50213510  0.52020726    -0.31300
C1253       C  0.16542872  0.43468486  0.56482681     0.02900
C1254       C  0.15745636  0.42233716  0.57454295    -0.33000
H1255       H  0.19045953  0.42861354  0.53507112     0.14000
H1256       H  0.21118169  0.45322404  0.51900554     0.13800
H1257       H  0.18610688  0.49808055  0.55549950     0.13600
H1258       H  0.16535220  0.47343884  0.57157864     0.12700
C1259       C  0.05988712  0.28510668  0.73086000     0.19000
C1260       C  0.07056150  0.27518546  0.71643591    -0.10100
C1261       C  0.08212655  0.28561911  0.70319956    -0.11000
C1262       C  0.08306851  0.30602183  0.70433320     0.20600
C1263       C  0.07254504  0.31591081  0.71887858    -0.13000
C1264       C  0.06098909  0.30548595  0.73210348    -0.11300
C1265       C  0.09414485  0.31690481  0.69014426     0.01500
C1266       C  0.10245269  0.32650561  0.67794330    -0.31300
C1267       C  0.04715421  0.27450829  0.74383057     0.02900
C1268       C  0.03569527  0.26585036  0.75404474    -0.33000
H1269       H  0.06973535  0.25943772  0.71526143     0.14000
H1270       H  0.09010786  0.27782106  0.69195364     0.13800
H1271       H  0.07306915  0.33168694  0.71983243     0.13600
H1272       H  0.05271899  0.31332144  0.74311295     0.12700
C1273       C  0.04008657  0.30255772  0.51860247     0.19000
C1274       C  0.02997452  0.31252614  0.53340732    -0.10100
C1275       C  0.04026294  0.32405488  0.54687693    -0.11000
C1276       C  0.06071779  0.32566440  0.54560139     0.20600
C1277       C  0.07076135  0.31593537  0.53061685    -0.13000
C1278       C  0.06048985  0.30442373  0.51717004    -0.11300
C1279       C  0.07159306  0.33646206  0.56011556     0.01500
C1280       C  0.08158201  0.34436681  0.57236485    -0.31300
C1281       C  0.02976579  0.28953241  0.50559921     0.02900
C1282       C  0.02145076  0.27759510  0.49558590    -0.33000
H1283       H  0.01420868  0.31110280  0.53475036     0.14000
H1284       H  0.03233524  0.33141587  0.55844544     0.13800
H1285       H  0.08657916  0.31697356  0.52953162     0.13600
H1286       H  0.06848885  0.29670179  0.50588955     0.12700
C1287       C  0.23358012  0.44763069  0.71133313     0.19000
C1288       C  0.21515733  0.45470087  0.70567165    -0.10100
C1289       C  0.20186406  0.44246452  0.69605005    -0.11000
C1290       C  0.20685813  0.42303354  0.69201966     0.20600
C1291       C  0.22525626  0.41589290  0.69775242    -0.13000
C1292       C  0.23858240  0.42815974  0.70740435    -0.11300
C1293       C  0.19327441  0.41077682  0.68144645     0.01500
C1294       C  0.18163570  0.40166259  0.67173460    -0.31300
C1295       C  0.24717055  0.46048765  0.72114977     0.02900
C1296       C  0.25745506  0.47221657  0.72946255    -0.33000
H1297       H  0.21109721  0.46970536  0.70862680     0.14000
H1298       H  0.18773994  0.44819730  0.69163232     0.13800
H1299       H  0.22933589  0.40092476  0.69465416     0.13600
H1300       H  0.25276732  0.42250412  0.71171528     0.12700
C1301       C  0.21952028  0.26373649  0.55908684     0.19000
C1302       C  0.22784137  0.28204700  0.56290626    -0.10100
C1303       C  0.21786054  0.29561084  0.57451387    -0.11000
C1304       C  0.19950326  0.29092548  0.58237105     0.20600
C1305       C  0.19136093  0.27246036  0.57889995    -0.13000
C1306       C  0.20134723  0.25888795  0.56727908    -0.11300
C1307       C  0.18845599  0.30549143  0.59282299     0.01500
C1308       C  0.17845743  0.31796453  0.60027986    -0.31300
C1309       C  0.22913052  0.25047842  0.54584776     0.02900
C1310       C  0.23722926  0.24050228  0.53376787    -0.33000
H1311       H  0.24183766  0.28599405  0.55655919     0.14000
H1312       H  0.22423437  0.30987574  0.57698706     0.13800
H1313       H  0.17711085  0.26872605  0.58479813     0.13600
H1314       H  0.19472638  0.24482279  0.56434254     0.12700
C1315       C  0.05003070  0.44066847  0.66627600     0.19000
C1316       C  0.05213389  0.46075172  0.66952519    -0.10100
C1317       C  0.03838239  0.47079562  0.68090675    -0.11000
C1318       C  0.02246608  0.46080266  0.68909536     0.20600
C1319       C  0.02013978  0.44080183  0.68549648    -0.13000
C1320       C  0.03388534  0.43076159  0.67411442    -0.11300
C1321       C  0.00934489  0.47076802  0.70224589     0.01500
C1322       C  0.99942688  0.47895341  0.71433424    -0.31300
C1323       C  0.06497908  0.42997877  0.65593752     0.02900
C1324       C  0.07771107  0.42028793  0.64846640    -0.33000
H1325       H  0.06460921  0.46854403  0.66363258     0.14000
H1326       H  0.04040291  0.48623069  0.68369139     0.13800
H1327       H  0.00797004  0.43289330  0.69184959     0.13600
H1328       H  0.03216425  0.41521495  0.67179087     0.12700
C1329       C  0.60835932  0.49743464  0.25278548     0.19000
C1330       C  0.61933399  0.48014420  0.25221246    -0.10100
C1331       C  0.63985416  0.48087728  0.25221851    -0.11000
C1332       C  0.64954919  0.49890651  0.25280240     0.20600
C1333       C  0.63857541  0.51620280  0.25334525     0.04600
C1334       C  0.61804894  0.51546945  0.25333850    -0.11300
C1335       C  0.67071124  0.49961901  0.25282493     0.01500
C1336       C  0.68842777  0.49994647  0.25275517    -0.31300
C1337       C  0.58720395  0.49666206  0.25290921     0.02900
C1338       C  0.56950150  0.49600369  0.25314093    -0.33000
H1339       H  0.61203610  0.46611008  0.25178706     0.14000
H1340       H  0.64815035  0.46740158  0.25178376     0.13800
H1341       H  0.64587652  0.53023476  0.25378818     0.13600
H1342       H  0.60974821  0.52894097  0.25378955     0.12700
C1343       C  0.75410991  0.35341281  0.49910637     0.19000
C1344       C  0.77163034  0.36327718  0.50326263    -0.10100
C1345       C  0.77214769  0.38369896  0.50321993    -0.11000
C1346       C  0.75514932  0.39439799  0.49901829     0.20600
C1347       C  0.73761352  0.38453816  0.49489093    -0.13000
C1348       C  0.73709599  0.36410769  0.49493278    -0.11300
C1349       C  0.75570769  0.41544897  0.49897602     0.01500
C1350       C  0.75616352  0.43306885  0.49904917    -0.31300
C1351       C  0.75363024  0.33236042  0.49914667     0.02900
C1352       C  0.75346562  0.31473678  0.49929047    -0.33000
H1353       H  0.78487641  0.35518900  0.50652683     0.14000
H1354       H  0.78578826  0.39113640  0.50645422     0.13800
H1355       H  0.72436695  0.39263211  0.49164091     0.13600
H1356       H  0.72345588  0.35666464  0.49171155     0.12700
C1357       C  0.85851526  0.49217561  0.74907718     0.19000
C1358       C  0.86847400  0.48858130  0.73152938    -0.10100
C1359       C  0.88898228  0.48949773  0.73090051    -0.11000
C1360       C  0.89966709  0.49402406  0.74781392     0.20600
C1361       C  0.88970663  0.49753575  0.76537309    -0.13000
C1362       C  0.86920474  0.49661876  0.76600169    -0.11300
C1363       C  0.92080044  0.49513114  0.74715136     0.01500
C1364       C  0.93848748  0.49601457  0.74656715    -0.31300
C1365       C  0.83736501  0.49156892  0.74967876     0.02900
C1366       C  0.81965906  0.49139915  0.75021559    -0.33000
H1367       H  0.86039362  0.48514892  0.71833856     0.14000
H1368       H  0.89649241  0.48673940  0.71723526     0.13800
H1369       H  0.89777809  0.50103676  0.77855104     0.13600
H1370       H  0.86169428  0.49944463  0.77965249     0.12700
C1371       C  0.35785940  0.50276096  0.74961212     0.19000
C1372       C  0.36789077  0.51298326  0.76429899    -0.10100
C1373       C  0.38842718  0.51298586  0.76473368    -0.11000
C1374       C  0.39905797  0.50276666  0.75048128     0.20600
C1375       C  0.38902205  0.49263258  0.73574771    -0.13000
C1376       C  0.36849822  0.49262928  0.73531371    -0.11300
C1377       C  0.42021526  0.50250393  0.75102831     0.01500
C1378       C  0.43791980  0.50197171  0.75128335    -0.31300
C1379       C  0.33669585  0.50250300  0.74929784     0.02900
C1380       C  0.31898440  0.50217234  0.74911437    -0.33000
H1381       H  0.35984694  0.52087595  0.77543972     0.14000
H1382       H  0.39599839  0.52087762  0.77620017     0.13800
H1383       H  0.39705704  0.48467718  0.72464577     0.13600
H1384       H  0.36093475  0.48467351  0.72388649     0.12700
C1385       C  0.74907399  0.89467041  0.50134236     0.19000
C1386       C  0.73574989  0.88460935  0.51320432    -0.10100
C1387       C  0.73532166  0.86417675  0.51305726    -0.11000
C1388       C  0.74821218  0.85367592  0.50103741     0.20600
C1389       C  0.76140688  0.86374676  0.48904360    -0.13000
C1390       C  0.76183580  0.88417330  0.48919169    -0.11300
C1391       C  0.74821155  0.83261287  0.50129037     0.01500
C1392       C  0.74868042  0.81499229  0.50161891    -0.31300
C1393       C  0.74976409  0.91571489  0.50175344     0.02900
C1394       C  0.75029697  0.93332952  0.50210597    -0.33000
H1395       H  0.72578663  0.89254810  0.52264234     0.14000
H1396       H  0.72505671  0.85657964  0.52240032     0.13800
H1397       H  0.77145269  0.85581127  0.47968889     0.13600
H1398       H  0.77218203  0.89176585  0.47993500     0.12700
C1399       C  0.50964062  0.74728146  0.35626423     0.19000
C1400       C  0.52749006  0.74517807  0.36620490    -0.10100
C1401       C  0.52794834  0.74553718  0.38664750    -0.11000
C1402       C  0.51055540  0.74800972  0.39727487     0.20600
C1403       C  0.49272231  0.75017448  0.38732883    -0.13000
C1404       C  0.49226393  0.74981419  0.36689451    -0.11300
C1405       C  0.51093669  0.74806120  0.41834337     0.01500
C1406       C  0.51100757  0.74779285  0.43597712    -0.31300
C1407       C  0.50913228  0.74681742  0.33520188     0.02900
C1408       C  0.50868553  0.74648439  0.31757260    -0.33000
H1409       H  0.54102994  0.74321798  0.35816269     0.14000
H1410       H  0.54182264  0.74382459  0.39415150     0.13800
H1411       H  0.47917099  0.75207254  0.39536675     0.13600
H1412       H  0.47837853  0.75146314  0.35939711     0.12700
C1413       C  0.49890096  0.74207592  0.85482091     0.19000
C1414       C  0.51662547  0.74049372  0.86507054    -0.10100
C1415       C  0.51674640  0.74111448  0.88550980    -0.11000
C1416       C  0.49914170  0.74332433  0.89584319     0.20600
C1417       C  0.48141388  0.74490129  0.88558949    -0.13000
C1418       C  0.48129325  0.74428120  0.86514715    -0.11300
C1419       C  0.49927264  0.74397858  0.91692045     0.01500
C1420       C  0.49939153  0.74452417  0.93455939    -0.31300
C1421       C  0.49881353  0.74156576  0.83375121     0.02900
C1422       C  0.49887584  0.74132630  0.81611489    -0.33000
H1423       H  0.53033820  0.73880559  0.85726997     0.14000
H1424       H  0.53054940  0.73988490  0.89324426     0.13800
H1425       H  0.46770334  0.74662027  0.89338872     0.13600
H1426       H  0.46749701  0.74554224  0.85740712     0.12700
C1427       C  0.75185935  0.14348876  0.00489495     0.19000
C1428       C  0.75529694  0.13341161  0.98739219    -0.10100
C1429       C  0.75532321  0.11298342  0.98708987    -0.11000
C1430       C  0.75191312  0.10248430  0.00429186     0.20600
C1431       C  0.74857524  0.11255625  0.02182421    -0.13000
C1432       C  0.74854981  0.13299531  0.02212687    -0.11300
C1433       C  0.75160725  0.08142538  0.00388216     0.01500
C1434       C  0.75114411  0.06380769  0.00339943    -0.31300
C1435       C  0.75166040  0.16455062  0.00510991     0.02900
C1436       C  0.75156380  0.18217861  0.00504639    -0.33000
H1437       H  0.75789091  0.14134061  0.97397667     0.14000
H1438       H  0.75791942  0.10538614  0.97344491     0.13800
H1439       H  0.74591737  0.10462042  0.03522355     0.13600
H1440       H  0.74589114  0.14060018  0.03575563     0.12700
C1441       C  0.14716819  0.99662343  0.74498919     0.19000
C1442       C  0.13637363  0.97929669  0.74645412    -0.10100
C1443       C  0.11586468  0.97985448  0.74645947    -0.11000
C1444       C  0.10601366  0.99774175  0.74500064     0.20600
C1445       C  0.11680140  0.01508274  0.74351028    -0.13000
C1446       C  0.13732814  0.01452437  0.74350560    -0.11300
C1447       C  0.08487514  0.99823541  0.74513409     0.01500
C1448       C  0.06717511  0.99823891  0.74538630    -0.31300
C1449       C  0.16830006  0.99599406  0.74509130     0.02900
C1450       C  0.18598467  0.99529258  0.74528729    -0.33000
H1451       H  0.14380490  0.96537379  0.74761837     0.14000
H1452       H  0.10769610  0.96635399  0.74762975     0.13800
H1453       H  0.10935919  0.02900316  0.74238446     0.13600
H1454       H  0.14550924  0.02802078  0.74237502     0.12700
C1455       C  0.00613260  0.74987043  0.10729640     0.19000
C1456       C  0.99602826  0.76464786  0.11729995    -0.10100
C1457       C  0.99592645  0.76504075  0.13775110    -0.11000
C1458       C  0.00592929  0.75065651  0.14834095     0.20600
C1459       C  0.01608505  0.73592041  0.13833427    -0.13000
C1460       C  0.01618665  0.73552732  0.11788793    -0.11300
C1461       C  0.00569161  0.75092357  0.16942651     0.01500
C1462       C  0.00553712  0.75093213  0.18707222    -0.31300
C1463       C  0.00613298  0.74939028  0.08621302     0.02900
C1464       C  0.00607457  0.74905109  0.06856935    -0.33000
H1465       H  0.98820489  0.77582935  0.10929932     0.14000
H1466       H  0.98802302  0.77651429  0.14529214     0.13800
H1467       H  0.02387982  0.72471692  0.14633162     0.13600
H1468       H  0.02406072  0.72403225  0.11035012     0.12700
C1469       C  0.25451643  0.60281043  0.50232209     0.19000
C1470       C  0.24379637  0.61269882  0.48793872    -0.10100
C1471       C  0.24354401  0.63314157  0.48756723    -0.11000
C1472       C  0.25401410  0.64385844  0.50158243     0.20600
C1473       C  0.26471848  0.63396961  0.51597565    -0.13000
C1474       C  0.26497103  0.61352894  0.51634699    -0.11300
C1475       C  0.25382945  0.66494821  0.50118753     0.01500
C1476       C  0.25385555  0.68259457  0.50101114    -0.31300
C1477       C  0.25482839  0.58171965  0.50264736     0.02900
C1478       C  0.25507208  0.56407363  0.50278832    -0.33000
H1479       H  0.23565118  0.60461088  0.47700358     0.14000
H1480       H  0.23521417  0.64057637  0.47636068     0.13800
H1481       H  0.27288245  0.64205651  0.52689783     0.13600
H1482       H  0.27331997  0.60609597  0.52754051     0.12700
C1483       C  0.25670709  0.14118206  0.50307975     0.19000
C1484       C  0.26860373  0.13113054  0.51637855    -0.10100
C1485       C  0.26863435  0.11070878  0.51665388    -0.11000
C1486       C  0.25676069  0.10021585  0.50363378     0.20600
C1487       C  0.24482708  0.11026471  0.49036215    -0.13000
C1488       C  0.24479680  0.13069049  0.49008657    -0.11300
C1489       C  0.25693748  0.07917722  0.50379474     0.01500
C1490       C  0.25716918  0.06156401  0.50375486    -0.31300
C1491       C  0.25669454  0.16222201  0.50281666     0.02900
C1492       C  0.25666102  0.17983800  0.50281448    -0.33000
H1493       H  0.27785933  0.13907333  0.52651170     0.14000
H1494       H  0.27792401  0.10311430  0.52697405     0.13800
H1495       H  0.23558622  0.10231867  0.48021843     0.13600
H1496       H  0.23552161  0.13828694  0.47975443     0.12700
C1497       C  0.00336753  0.74948821  0.64987155     0.19000
C1498       C  0.01165808  0.76502703  0.63948350    -0.10100
C1499       C  0.01194098  0.76468911  0.61904198    -0.11000
C1500       C  0.00393247  0.74880389  0.60885918     0.20600
C1501       C  0.99557475  0.73330317  0.61924741    -0.13000
C1502       C  0.99529200  0.73364097  0.63968684    -0.11300
C1503       C  0.00430688  0.74840197  0.58779560     0.01500
C1504       C  0.00457740  0.74813604  0.57016345    -0.31300
C1505       C  0.00328711  0.74972047  0.67093925     0.02900
C1506       C  0.00333049  0.74983016  0.68857383    -0.33000
H1507       H  0.01794635  0.77736648  0.64717931     0.14000
H1508       H  0.01842533  0.77676803  0.61119292     0.13800
H1509       H  0.98931728  0.72094663  0.61155355     0.13600
H1510       H  0.98883906  0.72154552  0.64753535     0.12700
C1511       C  0.20078198  0.97849612  0.46698299     0.19000
C1512       C  0.18922846  0.96509076  0.47726345    -0.10100
C1513       C  0.17652701  0.95258188  0.46716846    -0.11000
C1514       C  0.17532720  0.95344324  0.44676054     0.20600
C1515       C  0.18669463  0.96702210  0.43652365    -0.13000
C1516       C  0.19938128  0.97951349  0.44660578    -0.11300
C1517       C  0.16330895  0.93975499  0.43617596     0.01500
C1518       C  0.15454637  0.92781990  0.42658751    -0.31300
C1519       C  0.21470071  0.99060629  0.47717568     0.02900
C1520       C  0.22711936  0.00020432  0.48526220    -0.33000
H1521       H  0.19026653  0.96410457  0.49301159     0.14000
H1522       H  0.16790810  0.94205148  0.47522514     0.13800
H1523       H  0.18599148  0.96772713  0.42074043     0.13600
H1524       H  0.20831605  0.98974167  0.43849634     0.12700
C1525       C  0.03973945  0.80457391  0.48600756     0.19000
C1526       C  0.05773474  0.81309530  0.49100211    -0.10100
C1527       C  0.06727038  0.82540167  0.47778708    -0.11000
C1528       C  0.05886306  0.82925393  0.45951857     0.20600
C1529       C  0.04067958  0.82103911  0.45468020    -0.13000
C1530       C  0.03114290  0.80873695  0.46789552    -0.11300
C1531       C  0.06950520  0.84051324  0.44529482     0.01500
C1532       C  0.07931403  0.84865632  0.43313436    -0.31300
C1533       C  0.03058370  0.79079240  0.49897373     0.02900
C1534       C  0.02298000  0.77844777  0.50895388    -0.33000
H1535       H  0.06456303  0.80992058  0.50491325     0.14000
H1536       H  0.08138769  0.83156560  0.48164232     0.13800
H1537       H  0.03409720  0.82379953  0.44056234     0.13600
H1538       H  0.01727225  0.80216219  0.46383442     0.12700
C1539       C  0.08342353  0.80477352  0.30132769     0.19000
C1540       C  0.07735695  0.78549497  0.30440545    -0.10100
C1541       C  0.06593831  0.77593593  0.29034430    -0.11000
C1542       C  0.06053023  0.78561609  0.27315103     0.20600
C1543       C  0.06689241  0.80476933  0.26993318    -0.13000
C1544       C  0.07830944  0.81431960  0.28398227    -0.11300
C1545       C  0.04751694  0.77631646  0.25941259     0.01500
C1546       C  0.03559683  0.76861800  0.24889845    -0.31300
C1547       C  0.09387301  0.81521169  0.31635479     0.02900
C1548       C  0.10145990  0.82503075  0.32889496    -0.33000
H1549       H  0.08111365  0.77800795  0.31780994     0.14000
H1550       H  0.06100184  0.76116809  0.29304714     0.13800
H1551       H  0.06270389  0.81244393  0.25676421     0.13600
H1552       H  0.08280933  0.82926379  0.28150028     0.12700
C1553       C  0.21800247  0.76883304  0.44718972     0.19000
C1554       C  0.20184988  0.76318239  0.43584978    -0.10100
C1555       C  0.19192671  0.77697241  0.42446615    -0.11000
C1556       C  0.19809991  0.79648564  0.42435357     0.20600
C1557       C  0.21447895  0.80205085  0.43540440    -0.13000
C1558       C  0.22439805  0.78826934  0.44677685    -0.11300
C1559       C  0.18694326  0.81098444  0.41390061     0.01500
C1560       C  0.17681867  0.82327396  0.40630230    -0.31300
C1561       C  0.22746805  0.75502103  0.45997141     0.02900
C1562       C  0.23542495  0.74446728  0.47164298    -0.33000
H1563       H  0.19671347  0.74823107  0.43609194     0.14000
H1564       H  0.17922139  0.77250578  0.41607328     0.13800
H1565       H  0.21933486  0.81709874  0.43553597     0.13600
H1566       H  0.23681874  0.79284476  0.45553184     0.12700
C1567       C  0.27120537  0.94214873  0.70519760     0.19000
C1568       C  0.27119367  0.92178479  0.70713466    -0.10100
C1569       C  0.28557513  0.91056937  0.69774791    -0.11000
C1570       C  0.30001655  0.91970195  0.68643672     0.20600
C1571       C  0.29984667  0.94002419  0.68433419    -0.13000
C1572       C  0.28550368  0.95120525  0.69368564    -0.11300
C1573       C  0.31518315  0.90844598  0.67706718     0.01500
C1574       C  0.32836010  0.90032579  0.66856525    -0.31300
C1575       C  0.25724035  0.95399000  0.71564550     0.02900
C1576       C  0.24694606  0.96513187  0.72466513    -0.33000
H1577       H  0.26025131  0.91462726  0.71606220     0.14000
H1578       H  0.28554659  0.89486298  0.69944969     0.13800
H1579       H  0.31091738  0.94724424  0.67560897     0.13600
H1580       H  0.28571202  0.96693071  0.69214368     0.12700
C1581       C  0.31614715  0.97761285  0.53515795     0.19000
C1582       C  0.32103985  0.95984825  0.52619853    -0.10100
C1583       C  0.33355763  0.94670297  0.53563286    -0.11000
C1584       C  0.34125821  0.95126710  0.55406043     0.20600
C1585       C  0.33671165  0.96921946  0.56281078    -0.13000
C1586       C  0.32419615  0.98235515  0.55338401    -0.11300
C1587       C  0.35256668  0.93702871  0.56466650     0.01500
C1588       C  0.36055921  0.92494919  0.57469365    -0.31300
C1589       C  0.30197380  0.99038672  0.52622035     0.02900
C1590       C  0.28922049  0.00028744  0.51909098    -0.33000
H1591       H  0.31482800  0.95597497  0.51215926     0.14000
H1592       H  0.33684176  0.93280973  0.52878295     0.13800
H1593       H  0.34244915  0.97284893  0.57711264     0.13600
H1594       H  0.32044234  0.99599220  0.56050485     0.12700
C1595       C  0.47475662  0.79998662  0.52290158     0.19000
C1596       C  0.48514786  0.80976679  0.53764419    -0.10100
C1597       C  0.47512589  0.82126370  0.55132933    -0.11000
C1598       C  0.45466879  0.82300660  0.55032676     0.20600
C1599       C  0.44432206  0.81326558  0.53555034    -0.13000
C1600       C  0.45432444  0.80179302  0.52189180    -0.11300
C1601       C  0.44410918  0.83440560  0.56458088     0.01500
C1602       C  0.43401722  0.84316953  0.57612072    -0.31300
C1603       C  0.48485632  0.78744546  0.50929810     0.02900
C1604       C  0.49284851  0.77593743  0.49856915    -0.33000
H1605       H  0.50094228  0.80836180  0.53866286     0.14000
H1606       H  0.48327738  0.82864833  0.56273111     0.13800
H1607       H  0.42849658  0.81442499  0.53467511     0.13600
H1608       H  0.44611876  0.79419445  0.51066849     0.12700
C1609       C  0.44693343  0.78169445  0.73130375     0.19000
C1610       C  0.44417961  0.80178440  0.73397476    -0.10100
C1611       C  0.43296228  0.81242793  0.72061137    -0.11000
C1612       C  0.42443999  0.80303361  0.70450650     0.20600
C1613       C  0.42697217  0.78289706  0.70197506    -0.13000
C1614       C  0.43819012  0.77224991  0.71534328    -0.11300
C1615       C  0.41404761  0.81426052  0.69007376     0.01500
C1616       C  0.40659004  0.82428388  0.67766843    -0.31300
C1617       C  0.45950208  0.77096438  0.74434343     0.02900
C1618       C  0.47086827  0.76203597  0.75444592    -0.33000
H1619       H  0.45096655  0.80926779  0.74618872     0.14000
H1620       H  0.43121873  0.82800916  0.72264370     0.13800
H1621       H  0.42056721  0.77550000  0.68950672     0.13600
H1622       H  0.44031718  0.75675098  0.71306205     0.12700
C1623       C  0.29408872  0.76749294  0.55395787     0.19000
C1624       C  0.28774454  0.77169124  0.57299154    -0.10100
C1625       C  0.29790939  0.78534141  0.58444247    -0.11000
C1626       C  0.31443988  0.79485739  0.57688224     0.20600
C1627       C  0.32079339  0.79055831  0.55790324    -0.13000
C1628       C  0.31066368  0.77694755  0.54649054    -0.11300
C1629       C  0.32494354  0.80915166  0.58831813     0.01500
C1630       C  0.33476933  0.82133277  0.59651847    -0.31300
C1631       C  0.28333888  0.75407729  0.54171282     0.02900
C1632       C  0.27456110  0.74385302  0.53028706    -0.33000
H1633       H  0.27489047  0.76454942  0.57890306     0.14000
H1634       H  0.29283643  0.78854429  0.59908535     0.13800
H1635       H  0.33353023  0.79781987  0.55187852     0.13600
H1636       H  0.31566227  0.77391600  0.53178326     0.12700
C1637       C  0.00184700  0.24658248  0.39592131     0.19000
C1638       C  0.01549411  0.25791626  0.38567892    -0.10100
C1639       C  0.01534542  0.25814825  0.36522827    -0.11000
C1640       C  0.00154970  0.24705358  0.35484677     0.20600
C1641       C  0.98791461  0.23568983  0.36508511    -0.13000
C1642       C  0.98806377  0.23545753  0.38554690    -0.11300
C1643       C  0.00138917  0.24738586  0.33374318     0.01500
C1644       C  0.00142889  0.24782356  0.31609124    -0.31300
C1645       C  0.00195034  0.24647544  0.41702413     0.02900
C1646       C  0.00210061  0.24660472  0.43467898    -0.33000
H1647       H  0.02621939  0.26658825  0.39349454     0.14000
H1648       H  0.02596997  0.26699668  0.35751725     0.13800
H1649       H  0.97717208  0.22704448  0.35726381     0.13600
H1650       H  0.97742335  0.22663572  0.39326678     0.12700
C1651       C  0.05668176  0.21346070  0.22999352     0.19000
C1652       C  0.07695361  0.21199869  0.23315965    -0.10100
C1653       C  0.08880412  0.20200105  0.21971277    -0.11000
C1654       C  0.08042349  0.19345906  0.20304788     0.20600
C1655       C  0.06020381  0.19512325  0.19983559    -0.13000
C1656       C  0.04839526  0.20508156  0.21323613    -0.11300
C1657       C  0.09223346  0.18247824  0.18941812     0.01500
C1658       C  0.10054762  0.17245107  0.17748091    -0.31300
C1659       C  0.04416067  0.22332517  0.24384112     0.02900
C1660       C  0.03234829  0.23124995  0.25433836    -0.33000
H1661       H  0.08354798  0.21843935  0.24604096     0.14000
H1662       H  0.10441373  0.20079420  0.22238425     0.13800
H1663       H  0.05353347  0.18856721  0.18704588     0.13600
H1664       H  0.03276452  0.20612519  0.21059719     0.12700
C1665       C  0.00768152  0.25292879  0.89586680     0.19000
C1666       C  0.99899011  0.23690134  0.88651071    -0.10100
C1667       C  0.99871635  0.23577741  0.86610342    -0.11000
C1668       C  0.00713306  0.25067664  0.85491825     0.20600
C1669       C  0.01577411  0.26674070  0.86426688    -0.13000
C1670       C  0.01604766  0.26786538  0.88468342    -0.11300
C1671       C  0.00698454  0.24942636  0.83389256     0.01500
C1672       C  0.00693562  0.24837162  0.81629198    -0.31300
C1673       C  0.00807324  0.25395397  0.91690409     0.02900
C1674       C  0.00828182  0.25448077  0.93452821    -0.33000
H1675       H  0.99247051  0.22526405  0.89498573     0.14000
H1676       H  0.99199136  0.22328984  0.85905866     0.13800
H1677       H  0.02232703  0.27835478  0.85578576     0.13600
H1678       H  0.02280598  0.28033186  0.89173418     0.12700
C1679       C  0.04516081  0.20014778  0.01937989     0.19000
C1680       C  0.06470901  0.19444123  0.01666892    -0.10100
C1681       C  0.07362415  0.18166347  0.02990157    -0.11000
C1682       C  0.06305174  0.17451068  0.04591221     0.20600
C1683       C  0.04344200  0.18005411  0.04849405    -0.13000
C1684       C  0.03452872  0.19282362  0.03526340    -0.11300
C1685       C  0.07261634  0.16226430  0.06013639     0.01500
C1686       C  0.08150531  0.15305585  0.07227491    -0.31300
C1687       C  0.03615863  0.21399392  0.00632074     0.02900
C1688       C  0.02817991  0.22604720  0.99623411    -0.33000
H1689       H  0.07310735  0.20004842  0.00450212     0.14000
H1690       H  0.08883304  0.17757921  0.02780222     0.13800
H1691       H  0.03514488  0.17473011  0.06085641     0.13600
H1692       H  0.01942677  0.19718216  0.03756090     0.12700
C1693       C  0.39656460  0.99798618  0.25562331     0.19000
C1694       C  0.38643998  0.00560178  0.27174870    -0.10100
C1695       C  0.36591285  0.00641983  0.27164265    -0.11000
C1696       C  0.35537376  0.99963314  0.25540634     0.20600
C1697       C  0.36550467  0.99205936  0.23927328    -0.13000
C1698       C  0.38602149  0.99124078  0.23937932    -0.11300
C1699       C  0.33420647  0.00023864  0.25533458     0.01500
C1700       C  0.31648792  0.00039171  0.25512027    -0.31300
C1701       C  0.41772384  0.99710796  0.25571818     0.02900
C1702       C  0.43543338  0.99645199  0.25572684    -0.33000
H1703       H  0.39440261  0.01087632  0.28439396     0.14000
H1704       H  0.35827280  0.01229327  0.28421598     0.13800
H1705       H  0.35754698  0.98674960  0.22663904     0.13600
H1706       H  0.39365307  0.98533201  0.22681802     0.12700
C1707       C  0.20489949  0.92052452  0.31038336     0.19000
C1708       C  0.22472010  0.92083864  0.31583872    -0.10100
C1709       C  0.23799626  0.93278613  0.30585519    -0.11000
C1710       C  0.23151355  0.94448185  0.29038367     0.20600
C1711       C  0.21176747  0.94389369  0.28472330    -0.13000
C1712       C  0.19850779  0.93196310  0.29469570    -0.11300
C1713       C  0.24478320  0.95777827  0.28085870     0.01500
C1714       C  0.25489808  0.96982472  0.27290568    -0.31300
C1715       C  0.19091370  0.90940496  0.32154390     0.02900
C1716       C  0.17884083  0.90128951  0.33152282    -0.33000
H1717       H  0.22981820  0.91215187  0.32800847     0.14000
H1718       H  0.25321173  0.93316503  0.31041928     0.13800
H1719       H  0.20656131  0.95291600  0.27284523     0.13600
H1720       H  0.18320514  0.93194122  0.29040866     0.12700
C1721       C  0.23154793  0.05338678  0.21547441     0.19000
C1722       C  0.23544300  0.05836546  0.19602424    -0.10100
C1723       C  0.22227791  0.07010912  0.18564682    -0.11000
C1724       C  0.20513606  0.07695160  0.19465170     0.20600
C1725       C  0.20136866  0.07218102  0.21417940    -0.13000
C1726       C  0.21453371  0.06043845  0.22455687    -0.11300
C1727       C  0.19099882  0.08803314  0.18358535     0.01500
C1728       C  0.17884889  0.09628075  0.17377053    -0.31300
C1729       C  0.24451050  0.04036968  0.22582899     0.02900
C1730       C  0.25460333  0.02872315  0.23442163    -0.33000
H1731       H  0.24848206  0.05293496  0.18880445     0.14000
H1732       H  0.22531052  0.07359704  0.17052642     0.13800
H1733       H  0.18812750  0.07727793  0.22127647     0.13600
H1734       H  0.21129914  0.05661740  0.23955319     0.12700
C1735       C  0.25427896  0.84915113  0.00317436     0.19000
C1736       C  0.26310283  0.86017181  0.98837052    -0.10100
C1737       C  0.26299354  0.88059296  0.98936871    -0.11000
C1738       C  0.25406160  0.89012517  0.00517772     0.20600
C1739       C  0.24521106  0.87909983  0.01995218    -0.13000
C1740       C  0.24532043  0.85868971  0.01895444    -0.11300
C1741       C  0.25400115  0.91117095  0.00625973     0.01500
C1742       C  0.25402480  0.92878891  0.00703878    -0.31300
C1743       C  0.25455880  0.82809793  0.00232685     0.02900
C1744       C  0.25482511  0.81046864  0.00207038    -0.33000
H1745       H  0.27009597  0.85299023  0.97610307     0.14000
H1746       H  0.26988885  0.88893518  0.97784988     0.13800
H1747       H  0.23825965  0.88627298  0.03224751     0.13600
H1748       H  0.23846714  0.85035352  0.03050225     0.12700
C1749       C  0.17512848  0.04352863  0.05978644     0.19000
C1750       C  0.18909954  0.04912203  0.04587514    -0.10100
C1751       C  0.20131973  0.03510709  0.03730607    -0.11000
C1752       C  0.19970246  0.01542917  0.04257063     0.20600
C1753       C  0.18555336  0.00977824  0.05628500    -0.13000
C1754       C  0.17331665  0.02381023  0.06486301    -0.11300
C1755       C  0.21294364  0.00124627  0.03424252     0.01500
C1756       C  0.22488796  0.99052622  0.02683437    -0.31300
C1757       C  0.16351143  0.05816427  0.06961492     0.02900
C1758       C  0.15492691  0.07059756  0.07877307    -0.33000
H1759       H  0.19074090  0.06428115  0.04191487     0.14000
H1760       H  0.21224726  0.03968268  0.02672871     0.13800
H1761       H  0.18417589  0.99466549  0.06050059     0.13600
H1762       H  0.16263388  0.01930144  0.07570998     0.12700
C1763       C  0.25426913  0.35222832  0.00069542     0.19000
C1764       C  0.24869292  0.36233969  0.01762181    -0.10100
C1765       C  0.24900880  0.38276379  0.01800896    -0.11000
C1766       C  0.25490320  0.39323025  0.00146617     0.20600
C1767       C  0.26062663  0.38312188  0.98457847    -0.13000
C1768       C  0.26031042  0.36268415  0.98419100    -0.11300
C1769       C  0.25484054  0.41429650  0.00177692     0.01500
C1770       C  0.25460000  0.43192407  0.00212013    -0.31300
C1771       C  0.25352680  0.33117928  0.00023489     0.02900
C1772       C  0.25258261  0.31357441  0.00016337    -0.33000
H1773       H  0.24399685  0.35443959  0.03048093     0.14000
H1774       H  0.24455929  0.39038545  0.03115280     0.13800
H1775       H  0.26522424  0.39103214  0.97169096     0.13600
H1776       H  0.26466115  0.35505543  0.97101917     0.12700
C1777       C  0.21495820  0.23008839  0.05736106     0.19000
C1778       C  0.20290616  0.23635017  0.07272580    -0.10100
C1779       C  0.19377095  0.22262714  0.08481926    -0.11000
C1780       C  0.19668308  0.20261607  0.08159965     0.20600
C1781       C  0.20896847  0.19641206  0.06642398    -0.13000
C1782       C  0.21807737  0.21009679  0.05436316    -0.11300
C1783       C  0.18615598  0.18836407  0.09292582     0.01500
C1784       C  0.17651032  0.17591762  0.10082006    -0.31300
C1785       C  0.22367092  0.24392375  0.04414932     0.02900
C1786       C  0.23126414  0.25398721  0.03186223    -0.33000
H1787       H  0.20034095  0.25176102  0.07515327     0.14000
H1788       H  0.18418465  0.22759654  0.09642346     0.13800
H1789       H  0.21121564  0.18099861  0.06369212     0.13600
H1790       H  0.22731260  0.20507600  0.04249634     0.12700
C1791       C  0.85696007  0.99171167  0.25391874     0.19000
C1792       C  0.86626592  0.00527949  0.24176777    -0.10100
C1793       C  0.88675884  0.00643279  0.24126062    -0.11000
C1794       C  0.89814463  0.99402484  0.25290460     0.20600
C1795       C  0.88885416  0.98044898  0.26509081    -0.13000
C1796       C  0.86833075  0.97929370  0.26559826    -0.11300
C1797       C  0.91930165  0.99526753  0.25231339     0.01500
C1798       C  0.93699625  0.99636817  0.25181130    -0.31300
C1799       C  0.83579172  0.99063286  0.25429995     0.02900
C1800       C  0.81806056  0.99031993  0.25410242    -0.33000
H1801       H  0.85767597  0.01497002  0.23267167     0.14000
H1802       H  0.89371879  0.01699252  0.23178683     0.13800
H1803       H  0.89746307  0.97076832  0.27418063     0.13600
H1804       H  0.86134988  0.96874149  0.27506584     0.12700
C1805       C  0.04981264  0.94192009  0.32981103     0.19000
C1806       C  0.05560216  0.95904407  0.32027561    -0.10100
C1807       C  0.04249955  0.96877135  0.30792848    -0.11000
C1808       C  0.02353327  0.96143275  0.30502375     0.20600
C1809       C  0.01768193  0.94440375  0.31468922    -0.13000
C1810       C  0.03078712  0.93467487  0.32704066    -0.11300
C1811       C  0.01033817  0.97107907  0.29170753     0.01500
C1812       C  0.99993261  0.97920832  0.28000518    -0.31300
C1813       C  0.06362869  0.93131852  0.34170876     0.02900
C1814       C  0.07532971  0.92165790  0.35073490    -0.33000
H1815       H  0.07029424  0.96473005  0.32219425     0.14000
H1816       H  0.04722586  0.98188392  0.30048399     0.13800
H1817       H  0.00309580  0.93854392  0.31251369     0.13600
H1818       H  0.02616902  0.92138469  0.33423304     0.12700
C1819       C  0.04836788  0.05745588  0.17398423     0.19000
C1820       C  0.04198230  0.06614475  0.19140695    -0.10100
C1821       C  0.02840373  0.05658724  0.20333620    -0.11000
C1822       C  0.02106843  0.03825047  0.19793054     0.20600
C1823       C  0.02737658  0.02957215  0.18045718    -0.13000
C1824       C  0.04097972  0.03914855  0.16850427    -0.11300
C1825       C  0.00775224  0.02807699  0.21075021     0.01500
C1826       C  0.99764739  0.01940310  0.22233114    -0.31300
C1827       C  0.06261679  0.06736745  0.16198319     0.02900
C1828       C  0.07462060  0.07675636  0.15306341    -0.33000
H1829       H  0.04760119  0.08027630  0.19584048     0.14000
H1830       H  0.02376689  0.06340505  0.21684278     0.13800
H1831       H  0.02191905  0.01533895  0.17616283     0.13600
H1832       H  0.04580927  0.03225302  0.15510800     0.12700
C1833       C  0.65041178  0.99997609  0.75521020     0.19000
C1834       C  0.63992176  0.00288569  0.77257329    -0.10100
C1835       C  0.61939325  0.00340834  0.77229374    -0.11000
C1836       C  0.60922577  0.00102892  0.75464868     0.20600
C1837       C  0.61972132  0.99816031  0.73728646    -0.13000
C1838       C  0.64024300  0.99763853  0.73756594    -0.11300
C1839       C  0.58806706  0.00145151  0.75435710     0.01500
C1840       C  0.57035659  0.00172717  0.75413035    -0.31300
C1841       C  0.67156392  0.99935885  0.75547066     0.02900
C1842       C  0.68926887  0.99884994  0.75549519    -0.33000
H1843       H  0.64759941  0.00472250  0.78630689     0.14000
H1844       H  0.61146143  0.00563681  0.78581663     0.13800
H1845       H  0.61204811  0.99630231  0.72355333     0.13600
H1846       H  0.64817015  0.99539029  0.72404384     0.12700
C1847       C  0.46046329  0.93941302  0.67735050     0.19000
C1848       C  0.46083134  0.95984294  0.67642346    -0.10100
C1849       C  0.47348526  0.97048457  0.68854949    -0.11000
C1850       C  0.48585448  0.96076139  0.70168216     0.20600
C1851       C  0.48553859  0.94033444  0.70255163    -0.13000
C1852       C  0.47289213  0.92969849  0.69043198    -0.11300
C1853       C  0.49844361  0.97172475  0.71462859     0.01500
C1854       C  0.50841106  0.98088658  0.72599498    -0.31300
C1855       C  0.44700508  0.92841221  0.66532064     0.02900
C1856       C  0.43542956  0.91878647  0.65602978    -0.33000
H1857       H  0.45123973  0.96754361  0.66644900     0.14000
H1858       H  0.47351336  0.98626635  0.68779649     0.13800
H1859       H  0.49494938  0.93264018  0.71269965     0.13600
H1860       H  0.47269398  0.91392650  0.69136853     0.12700
C1861       C  0.50184121  0.24300382  0.60891398     0.19000
C1862       C  0.49319252  0.22745366  0.61902289    -0.10100
C1863       C  0.49273475  0.22749287  0.63949175    -0.11000
C1864       C  0.50092194  0.24308091  0.65001141     0.20600
C1865       C  0.50959037  0.25860214  0.63989668    -0.13000
C1866       C  0.51004710  0.25856335  0.61944523    -0.11300
C1867       C  0.50034510  0.24324550  0.67112393     0.01500
C1868       C  0.49981756  0.24359906  0.68877910    -0.31300
C1869       C  0.50228599  0.24308487  0.58779367     0.02900
C1870       C  0.50281997  0.24354450  0.57013966    -0.33000
H1871       H  0.48678876  0.21532918  0.61109417     0.14000
H1872       H  0.48597689  0.21540186  0.64710074     0.13800
H1873       H  0.51596499  0.27074831  0.64781450     0.13600
H1874       H  0.51677533  0.27067862  0.61184805     0.12700
C1875       C  0.50031920  0.24687285  0.10533570     0.19000
C1876       C  0.50913701  0.23137836  0.11538518    -0.10100
C1877       C  0.50939602  0.23125890  0.13583265    -0.11000
C1878       C  0.50083865  0.24662732  0.14635852     0.20600
C1879       C  0.49204298  0.26212557  0.13630493    -0.13000
C1880       C  0.49178466  0.26224558  0.11586457    -0.11300
C1881       C  0.50111609  0.24654243  0.16743000     0.01500
C1882       C  0.50142120  0.24657476  0.18506542    -0.31300
C1883       C  0.49996581  0.24698552  0.08426601     0.02900
C1884       C  0.49955520  0.24715069  0.06663434    -0.33000
H1885       H  0.51578468  0.21941082  0.10742847     0.14000
H1886       H  0.51625771  0.21919616  0.14342410     0.13800
H1887       H  0.48539320  0.27409555  0.14425716     0.13600
H1888       H  0.48492269  0.27431013  0.10827806     0.12700
C1889       C  0.30757521  0.01337978  0.96842292     0.19000
C1890       C  0.31406146  0.00850037  0.94962547    -0.10100
C1891       C  0.32508471  0.02187400  0.93880846    -0.11000
C1892       C  0.32966816  0.04019040  0.94674535     0.20600
C1893       C  0.32340292  0.04496161  0.96563926    -0.13000
C1894       C  0.31238678  0.03159407  0.97645147    -0.11300
C1895       C  0.33996088  0.05440671  0.93518018     0.01500
C1896       C  0.34760983  0.06659419  0.92504913    -0.31300
C1897       C  0.29512902  0.00019686  0.97908622     0.02900
C1898       C  0.28370283  0.99008982  0.98790589    -0.33000
H1899       H  0.31032477  0.99451080  0.94321664     0.14000
H1900       H  0.32975009  0.01806912  0.92417580     0.13800
H1901       H  0.32675750  0.05912058  0.97188372     0.13600
H1902       H  0.30734769  0.03557679  0.99091389     0.12700
C1903       C  0.28383345  0.22496941  0.94745385     0.19000
C1904       C  0.27963345  0.22392397  0.92743021    -0.10100
C1905       C  0.28898971  0.20996803  0.91567937    -0.11000
C1906       C  0.30255077  0.19699486  0.92392662     0.20600
C1907       C  0.30662089  0.19799365  0.94395970    -0.13000
C1908       C  0.29729691  0.21191090  0.95567370    -0.11300
C1909       C  0.31266314  0.18283236  0.91200603     0.01500
C1910       C  0.32235407  0.17071855  0.90356392    -0.31300
C1911       C  0.27434871  0.23924370  0.95974385     0.02900
C1912       C  0.26678890  0.25034014  0.97120633    -0.33000
H1913       H  0.26919804  0.23389673  0.92091671     0.14000
H1914       H  0.28572583  0.20934970  0.90021326     0.13800
H1915       H  0.31707847  0.18806138  0.95051242     0.13600
H1916       H  0.30062114  0.21251984  0.97113220     0.12700
C1917       C  0.45996288  0.19342337  0.98222129     0.19000
C1918       C  0.46914237  0.18745122  0.96489615    -0.10100
C1919       C  0.45916062  0.17552387  0.95158141    -0.11000
C1920       C  0.43994142  0.16949316  0.95551737     0.20600
C1921       C  0.43087409  0.17519901  0.97299259    -0.13000
C1922       C  0.44085619  0.18713355  0.98630811    -0.11300
C1923       C  0.42917172  0.15827938  0.94126439     0.01500
C1924       C  0.41938707  0.14979319  0.92925635    -0.31300
C1925       C  0.46984814  0.20670644  0.99528401     0.02900
C1926       C  0.47827004  0.21855983  0.00529898    -0.33000
H1927       H  0.48387552  0.19227963  0.96153533     0.14000
H1928       H  0.46629858  0.17128498  0.93809127     0.13800
H1929       H  0.41599227  0.17070125  0.97616181     0.13600
H1930       H  0.43357073  0.19171095  0.99960883     0.12700
C1931       C  0.27095785  0.04543558  0.78738296     0.19000
C1932       C  0.26482623  0.05368236  0.80510425    -0.10100
C1933       C  0.27740824  0.06601359  0.81557071    -0.11000
C1934       C  0.29617756  0.07017372  0.80835015     0.20600
C1935       C  0.30223700  0.06203426  0.79056088    -0.13000
C1936       C  0.28966707  0.04971247  0.78010486    -0.11300
C1937       C  0.30957019  0.08198773  0.81959174     0.01500
C1938       C  0.32136439  0.09071860  0.82943709    -0.31300
C1939       C  0.25829483  0.03227218  0.77683768     0.02900
C1940       C  0.24828615  0.02088252  0.76779174    -0.33000
H1941       H  0.25041891  0.05043708  0.81091067     0.14000
H1942       H  0.27260398  0.07210423  0.82936916     0.13800
H1943       H  0.31675715  0.06502491  0.78489215     0.13600
H1944       H  0.29459706  0.04337994  0.76645936     0.12700
C1945       C  0.45663379  0.05898683  0.83081564     0.19000
C1946       C  0.45924570  0.06542270  0.81159606    -0.10100
C1947       C  0.47336607  0.05669903  0.79964448    -0.11000
C1948       C  0.48500093  0.04148224  0.80683844     0.20600
C1949       C  0.48259753  0.03519307  0.82615714    -0.13000
C1950       C  0.46844132  0.04394077  0.83814082    -0.11300
C1951       C  0.49860133  0.03173796  0.79401038     0.01500
C1952       C  0.50882400  0.02321106  0.78242003    -0.31300
C1953       C  0.44156964  0.06773434  0.84269305     0.02900
C1954       C  0.42850713  0.07609004  0.85114269    -0.33000
H1955       H  0.45020226  0.07704446  0.80577371     0.14000
H1956       H  0.47501295  0.06161941  0.78472119     0.13800
H1957       H  0.49145171  0.02336871  0.83185014     0.13600
H1958       H  0.46655790  0.03884887  0.85297400     0.12700
C1959       C  0.44260956  0.20796573  0.77280299     0.19000
C1960       C  0.44596971  0.20897725  0.79296763    -0.10100
C1961       C  0.43351514  0.19926525  0.80591824    -0.11000
C1962       C  0.41757261  0.18847003  0.79883937     0.20600
C1963       C  0.41405525  0.18759318  0.77867168    -0.13000
C1964       C  0.42654198  0.19733731  0.76568433    -0.11300
C1965       C  0.40555776  0.17760375  0.81232215     0.01500
C1966       C  0.39713190  0.16795147  0.82443309    -0.31300
C1967       C  0.45600710  0.21749516  0.75959497     0.02900
C1968       C  0.46813742  0.22558382  0.74963682    -0.33000
H1969       H  0.45834398  0.21709250  0.79866213     0.14000
H1970       H  0.43647806  0.19996433  0.82145612     0.13800
H1971       H  0.40185890  0.17920544  0.77299884     0.13600
H1972       H  0.42379986  0.19640479  0.75012122     0.12700
C1973       C  0.71368589  0.26694537  0.95068059     0.19000
C1974       C  0.70747644  0.26115086  0.93201697    -0.10100
C1975       C  0.69712664  0.27421967  0.92012312    -0.11000
C1976       C  0.69296902  0.29312533  0.92684187     0.20600
C1977       C  0.69938611  0.29893553  0.94540252    -0.13000
C1978       C  0.70970084  0.28590702  0.95726020    -0.11300
C1979       C  0.68163205  0.30649381  0.91513872     0.01500
C1980       C  0.67168858  0.31836810  0.90668391    -0.31300
C1981       C  0.72384803  0.25352742  0.96334938     0.02900
C1982       C  0.73227210  0.24338185  0.97505718    -0.33000
H1983       H  0.71047161  0.24654029  0.92675625     0.14000
H1984       H  0.69221393  0.26953276  0.90580923     0.13800
H1985       H  0.69624108  0.31347455  0.95078571     0.13600
H1986       H  0.71441958  0.29057262  0.97164831     0.12700
C1987       C  0.53533805  0.30273318  0.98226740     0.19000
C1988       C  0.52709281  0.30709158  0.96404033    -0.10100
C1989       C  0.53705253  0.31923430  0.95098310    -0.11000
C1990       C  0.55531886  0.32710889  0.95607522     0.20600
C1991       C  0.56341004  0.32303239  0.97444231    -0.13000
C1992       C  0.55344538  0.31088151  0.98750625    -0.11300
C1993       C  0.56630422  0.33826958  0.94200509     0.01500
C1994       C  0.57619572  0.34626901  0.92979939    -0.31300
C1995       C  0.52562023  0.28922072  0.99514393     0.02900
C1996       C  0.51748206  0.27718862  0.00510997    -0.33000
H1997       H  0.51314468  0.30081991  0.95978426     0.14000
H1998       H  0.53070385  0.32215949  0.93678849     0.13800
H1999       H  0.57758236  0.32892131  0.97850250     0.13600
H2000       H  0.56001142  0.30756406  0.00151387     0.12700
C2001       C  0.70721363  0.41844150  0.81392573     0.19000
C2002       C  0.70855248  0.43849979  0.81773786    -0.10100
C2003       C  0.72217011  0.44994792  0.80768739    -0.11000
C2004       C  0.73457082  0.44142085  0.79376705     0.20600
C2005       C  0.73337142  0.42132431  0.79006279    -0.13000
C2006       C  0.71973080  0.40985519  0.80013261    -0.11300
C2007       C  0.74795357  0.45348938  0.78286348     0.01500
C2008       C  0.75815941  0.46442978  0.77354570    -0.31300
C2009       C  0.69281574  0.40686839  0.82406181     0.02900
C2010       C  0.68038096  0.39826363  0.83315130    -0.33000
H2011       H  0.69896522  0.44531172  0.82836538     0.14000
H2012       H  0.72289742  0.46547234  0.81063136     0.13800
H2013       H  0.74282674  0.41457472  0.77928467     0.13600
H2014       H  0.71884198  0.39436755  0.79706133     0.12700
C2015       C  0.54752321  0.43880113  0.82845325     0.19000
C2016       C  0.54476480  0.45882979  0.83164757    -0.10100
C2017       C  0.53163232  0.46934879  0.81997670    -0.11000
C2018       C  0.52119013  0.45989500  0.80506590     0.20600
C2019       C  0.52379446  0.43983012  0.80203287    -0.13000
C2020       C  0.53691100  0.42932446  0.81368808    -0.11300
C2021       C  0.50853046  0.47085153  0.79226225     0.01500
C2022       C  0.49877404  0.47980952  0.78061356    -0.31300
C2023       C  0.56169009  0.42805072  0.83978955     0.02900
C2024       C  0.57384458  0.41846377  0.84828172    -0.33000
H2025       H  0.55292890  0.46633556  0.84295489     0.14000
H2026       H  0.52983218  0.48488271  0.82239798     0.13800
H2027       H  0.51590647  0.43237743  0.79049524     0.13600
H2028       H  0.53896744  0.41386059  0.81101630     0.12700
C2029       C  0.55110928  0.28380820  0.77469458     0.19000
C2030       C  0.54329267  0.29758299  0.78769850    -0.10100
C2031       C  0.55552172  0.30727523  0.80096023    -0.11000
C2032       C  0.57567476  0.30327168  0.80136307     0.20600
C2033       C  0.58353454  0.28951882  0.78834032    -0.13000
C2034       C  0.57127827  0.27980293  0.77505271    -0.11300
C2035       C  0.58812904  0.31349141  0.81504809     0.01500
C2036       C  0.59737053  0.32306489  0.82669465    -0.31300
C2037       C  0.53829039  0.27358533  0.76134611     0.02900
C2038       C  0.52680569  0.26500257  0.75097713    -0.33000
H2039       H  0.52773971  0.30078417  0.78762733     0.14000
H2040       H  0.54925275  0.31789136  0.81091543     0.13800
H2041       H  0.59908115  0.28630781  0.78846801     0.13600
H2042       H  0.57750842  0.26914770  0.76511947     0.12700
C2043       C  0.14965125  0.49275301  0.25169189     0.19000
C2044       C  0.13974172  0.50314220  0.26634046    -0.10100
C2045       C  0.11920347  0.50379950  0.26653116    -0.11000
C2046       C  0.10837326  0.49407593  0.25207292     0.20600
C2047       C  0.11826840  0.48361207  0.23745949    -0.13000
C2048       C  0.13882114  0.48295449  0.23726839    -0.11300
C2049       C  0.08717407  0.49499705  0.25217139     0.01500
C2050       C  0.06945591  0.49598044  0.25229760    -0.31300
C2051       C  0.17087451  0.49239602  0.25135486     0.02900
C2052       C  0.18862564  0.49251660  0.25111958    -0.33000
H2053       H  0.14789153  0.51080374  0.27756960     0.14000
H2054       H  0.11177793  0.51194834  0.27790740     0.13800
H2055       H  0.11010892  0.47603091  0.22618370     0.13600
H2056       H  0.14625575  0.47488321  0.22584172     0.12700
C2057       C  0.75028323  0.64452091  0.00219273     0.19000
C2058       C  0.76326422  0.63395180  0.01402072    -0.10100
C2059       C  0.76215392  0.61355294  0.01474591    -0.11000
C2060       C  0.74805031  0.60357848  0.00365646     0.20600
C2061       C  0.73503404  0.61415463  0.99187992    -0.13000
C2062       C  0.73614445  0.63454788  0.99115453    -0.11300
C2063       C  0.74708146  0.58252790  0.00415126     0.01500
C2064       C  0.74641569  0.56490241  0.00426842    -0.31300
C2065       C  0.75141538  0.66555400  0.00143135     0.02900
C2066       C  0.75221289  0.68316613  0.00094768    -0.33000
H2067       H  0.77424377  0.64146783  0.02264673     0.14000
H2068       H  0.77231736  0.60556646  0.02389933     0.13800
H2069       H  0.72407665  0.60664035  0.98322517     0.13600
H2070       H  0.72600341  0.64252817  0.98197231     0.12700
C2071       C  0.66766556  0.45388435  0.94483867     0.19000
C2072       C  0.66684112  0.45532232  0.96524040    -0.10100
C2073       C  0.67841676  0.46907771  0.97507717    -0.11000
C2074       C  0.69088684  0.48147392  0.96458105     0.20600
C2075       C  0.69138403  0.48031915  0.94415184    -0.13000
C2076       C  0.67981060  0.46657518  0.93432029    -0.11300
C2077       C  0.70404853  0.49445707  0.97480201     0.01500
C2078       C  0.71594651  0.50425842  0.98346948    -0.31300
C2079       C  0.65701802  0.43870941  0.93473525     0.02900
C2080       C  0.64946934  0.42562635  0.92557330    -0.33000
H2081       H  0.65759479  0.44555333  0.97355049     0.14000
H2082       H  0.67796765  0.46974886  0.99087980     0.13800
H2083       H  0.70102348  0.48973031  0.93586772     0.13600
H2084       H  0.68065750  0.46555868  0.91854922     0.12700
C2085       C  0.96689820  0.30756532  0.01826797     0.19000
C2086       C  0.97574721  0.31473022  0.03531020    -0.10100
C2087       C  0.96504661  0.32638891  0.04828960    -0.11000
C2088       C  0.94542520  0.33096449  0.04430453     0.20600
C2089       C  0.93663197  0.32399903  0.02713992    -0.13000
C2090       C  0.94734080  0.31233014  0.01415035    -0.11300
C2091       C  0.93408291  0.34195156  0.05828579     0.01500
C2092       C  0.92423945  0.35008079  0.07048623    -0.31300
C2093       C  0.97766554  0.29468605  0.00550476     0.02900
C2094       C  0.98681684  0.28322313  0.99567801    -0.33000
H2095       H  0.99082433  0.31106702  0.03870589     0.14000
H2096       H  0.97196970  0.33157641  0.06155698     0.13800
H2097       H  0.92143192  0.32733536  0.02395326     0.13600
H2098       H  0.94030746  0.30680342  0.00107931     0.12700
C2099       C  0.94793588  0.28739943  0.23128681     0.19000
C2100       C  0.93561871  0.27718351  0.21842814    -0.10100
C2101       C  0.92427839  0.28732644  0.20472149    -0.11000
C2102       C  0.92519983  0.30774343  0.20378952     0.20600
C2103       C  0.93731656  0.31794603  0.21682694    -0.13000
C2104       C  0.94863985  0.30781773  0.23051336    -0.11300
C2105       C  0.91436436  0.31826745  0.18906288     0.01500
C2106       C  0.90630663  0.32786005  0.17663410    -0.31300
C2107       C  0.96064192  0.27698086  0.24452761     0.02900
C2108       C  0.97231259  0.26849603  0.25472078    -0.33000
H2109       H  0.93502220  0.26139287  0.21878748     0.14000
H2110       H  0.91503581  0.27925172  0.19468961     0.13800
H2111       H  0.93823084  0.33371442  0.21622056     0.13600
H2112       H  0.95817769  0.31588816  0.24027216     0.12700
C2113       C  0.98200987  0.46312128  0.19835166     0.19000
C2114       C  0.96204054  0.46258008  0.20313796    -0.10100
C2115       C  0.94869540  0.45312691  0.19081315    -0.11000
C2116       C  0.95521233  0.44416008  0.17358657     0.20600
C2117       C  0.97515492  0.44486603  0.16867082    -0.13000
C2118       C  0.98852244  0.45433763  0.18101478    -0.11300
C2119       C  0.94153699  0.43347781  0.16155465     0.01500
C2120       C  0.92981719  0.42367212  0.15267147    -0.31300
C2121       C  0.99573625  0.47235705  0.21148578     0.02900
C2122       C  0.00640971  0.48011174  0.22325210    -0.33000
H2123       H  0.95681631  0.46928745  0.21650608     0.14000
H2124       H  0.93335164  0.45259194  0.19483864     0.13800
H2125       H  0.98039802  0.43789502  0.15544815     0.13600
H2126       H  0.00391437  0.45463138  0.17715874     0.12700
C2127       C  0.79130363  0.26686336  0.05785894     0.19000
C2128       C  0.78091894  0.27909593  0.07062671    -0.10100
C2129       C  0.79094356  0.29269226  0.08220653    -0.11000
C2130       C  0.81140870  0.29412260  0.08107635     0.20600
C2131       C  0.82181516  0.28164759  0.06856547    -0.13000
C2132       C  0.81179625  0.26806112  0.05699043    -0.11300
C2133       C  0.82167550  0.30903829  0.09188210     0.01500
C2134       C  0.83087555  0.32194683  0.09965369    -0.31300
C2135       C  0.78090381  0.25385586  0.04491652     0.02900
C2136       C  0.77217393  0.24382667  0.03329572    -0.33000
H2137       H  0.76506572  0.27837706  0.07135821     0.14000
H2138       H  0.78272913  0.30231274  0.09174010     0.13800
H2139       H  0.83763273  0.28267855  0.06748487     0.13600
H2140       H  0.81998163  0.25876352  0.04711469     0.12700
C2141       C  0.80081355  0.48010708  0.04058095     0.19000
C2142       C  0.80799150  0.48492598  0.05915935    -0.10100
C2143       C  0.82073799  0.47220149  0.06889658    -0.11000
C2144       C  0.82640283  0.45457257  0.06010911     0.20600
C2145       C  0.81944432  0.44989367  0.04141401    -0.13000
C2146       C  0.80670219  0.46261327  0.03168060    -0.11300
C2147       C  0.83850350  0.44086607  0.07064463     0.01500
C2148       C  0.84758705  0.42891205  0.07992748    -0.31300
C2149       C  0.78690174  0.49271619  0.03093209     0.02900
C2150       C  0.77475382  0.50268540  0.02285450    -0.33000
H2151       H  0.80351813  0.49837414  0.06623132     0.14000
H2152       H  0.82592056  0.47595676  0.08337215     0.13800
H2153       H  0.82362036  0.43627443  0.03448870     0.13600
H2154       H  0.80122790  0.45868259  0.01735873     0.12700
C2155       C  0.77264577  0.44539795  0.21364257     0.19000
C2156       C  0.76973997  0.44095308  0.19386855    -0.10100
C2157       C  0.78298398  0.42880728  0.18402801    -0.11000
C2158       C  0.79920773  0.42103115  0.19390371     0.20600
C2159       C  0.80195399  0.42525271  0.21374643    -0.13000
C2160       C  0.78870912  0.43739325  0.22358692    -0.11300
C2161       C  0.81357520  0.40968951  0.18338821     0.01500
C2162       C  0.82594334  0.40146817  0.17380785    -0.31300
C2163       C  0.75972439  0.45883873  0.22352507     0.02900
C2164       C  0.74980303  0.47075518  0.23197965    -0.33000
H2165       H  0.75744028  0.44712359  0.18599070     0.14000
H2166       H  0.78077024  0.42576267  0.16865720     0.13800
H2167       H  0.81450190  0.41944633  0.22151307     0.13600
H2168       H  0.79117070  0.44079653  0.23884457     0.12700
C2169       C  0.95068674  0.71364629  0.27194081     0.19000
C2170       C  0.94795283  0.69342541  0.27061845    -0.10100
C2171       C  0.93599905  0.68382074  0.28412248    -0.11000
C2172       C  0.92670074  0.69436097  0.29904431     0.20600
C2173       C  0.92931640  0.71461233  0.30029881    -0.13000
C2174       C  0.94127987  0.72422725  0.28677878    -0.11300
C2175       C  0.91513051  0.68420126  0.31340975     0.01500
C2176       C  0.90647419  0.67470364  0.32546770    -0.31300
C2177       C  0.96381526  0.72336807  0.25864215     0.02900
C2178       C  0.97565736  0.73147012  0.24838247    -0.33000
H2179       H  0.95524578  0.68506366  0.25931466     0.14000
H2180       H  0.93419445  0.66814439  0.28306824     0.13800
H2181       H  0.92231320  0.72290904  0.31183014     0.13600
H2182       H  0.94338861  0.73985014  0.28803995     0.12700
C2183       C  0.96803322  0.69397341  0.48445437     0.19000
C2184       C  0.94840798  0.68883543  0.48761330    -0.10100
C2185       C  0.93839888  0.67744282  0.47385813    -0.11000
C2186       C  0.94794898  0.67111832  0.45686236     0.20600
C2187       C  0.96764488  0.67606862  0.45380545    -0.13000
C2188       C  0.97765840  0.68746223  0.46756684    -0.11300
C2189       C  0.93722911  0.66042113  0.44217530     0.01500
C2190       C  0.92749447  0.65259290  0.42968580    -0.31300
C2191       C  0.97797079  0.70674518  0.49797778     0.02900
C2192       C  0.98617489  0.71840960  0.50838415    -0.33000
H2193       H  0.94076582  0.69389124  0.50053083     0.14000
H2194       H  0.92313577  0.67383119  0.47632317     0.13800
H2195       H  0.97515023  0.67139115  0.44066760     0.13600
H2196       H  0.99278782  0.69145514  0.46489015     0.12700
C2197       C  0.98628866  0.53936841  0.30612983     0.19000
C2198       C  0.97303590  0.52930560  0.31808425    -0.10100
C2199       C  0.95966674  0.53962783  0.32970583    -0.11000
C2200       C  0.95945212  0.56007677  0.32944950     0.20600
C2201       C  0.97288732  0.57013885  0.31770155    -0.13000
C2202       C  0.98625097  0.55982008  0.30608288    -0.11300
C2203       C  0.94495445  0.57074559  0.34053056     0.01500
C2204       C  0.93248846  0.58015783  0.34883421    -0.31300
C2205       C  0.99917875  0.52873243  0.29319422     0.02900
C2206       C  0.00898258  0.51974061  0.28154819    -0.33000
H2207       H  0.97282569  0.51350885  0.31817825     0.14000
H2208       H  0.94930848  0.53166375  0.33864785     0.13800
H2209       H  0.97282511  0.58593182  0.31729372     0.13600
H2210       H  0.99633061  0.56778551  0.29683077     0.12700
C2211       C  0.81213694  0.51754372  0.46304887     0.19000
C2212       C  0.82019096  0.53333450  0.47335022    -0.10100
C2213       C  0.83206859  0.54691295  0.46372656    -0.11000
C2214       C  0.83597554  0.54477970  0.44374761     0.20600
C2215       C  0.82822699  0.52878155  0.43353565    -0.13000
C2216       C  0.81634822  0.51520856  0.44315663    -0.11300
C2217       C  0.84683635  0.55958748  0.43343361     0.01500
C2218       C  0.85455804  0.57234693  0.42404673    -0.31300
C2219       C  0.79871873  0.50441820  0.47263253     0.02900
C2220       C  0.78665830  0.49436128  0.48068308    -0.33000
H2221       H  0.81696821  0.53536275  0.48870168     0.14000
H2222       H  0.83785904  0.55927655  0.47176459     0.13800
H2223       H  0.83102720  0.52703066  0.41806869     0.13600
H2224       H  0.81013486  0.50312814  0.43500000     0.12700
C2225       C  0.78875596  0.73057932  0.44800595     0.19000
C2226       C  0.77990947  0.71289671  0.44263215    -0.10100
C2227       C  0.79005575  0.69947767  0.43095523    -0.11000
C2228       C  0.80911367  0.70366920  0.42457668     0.20600
C2229       C  0.81783932  0.72148314  0.42970336    -0.13000
C2230       C  0.80769636  0.73489797  0.44138336    -0.11300
C2231       C  0.82009463  0.68938300  0.41359229     0.01500
C2232       C  0.83014448  0.67744203  0.40531174    -0.31300
C2233       C  0.77877845  0.74377304  0.46109488     0.02900
C2234       C  0.77043753  0.75387555  0.47293344    -0.33000
H2235       H  0.76531180  0.70934252  0.44774171     0.14000
H2236       H  0.78318170  0.68573030  0.42718046     0.13800
H2237       H  0.83260038  0.72485810  0.42494673     0.13600
H2238       H  0.81473494  0.74845972  0.44551295     0.12700
C2239       C  0.77417268  0.55397056  0.28972466     0.19000
C2240       C  0.77233814  0.55754590  0.30979197    -0.10100
C2241       C  0.78582588  0.56963324  0.31936678    -0.11000
C2242       C  0.80124882  0.57822731  0.30894528     0.20600
C2243       C  0.80296473  0.57483227  0.28883124    -0.13000
C2244       C  0.78946410  0.56274029  0.27924853    -0.11300
C2245       C  0.81568551  0.58980488  0.31913266     0.01500
C2246       C  0.82771408  0.59847438  0.32876655    -0.31300
C2247       C  0.76089827  0.54070114  0.28004804     0.02900
C2248       C  0.75058647  0.52892414  0.27184901    -0.33000
H2249       H  0.76065175  0.55078651  0.31808022     0.14000
H2250       H  0.78439077  0.57205918  0.33493242     0.13800
H2251       H  0.81486910  0.58130400  0.28062145     0.13600
H2252       H  0.79110143  0.56001923  0.26375234     0.12700
C2253       C  0.52486622  0.53380204  0.69616109     0.19000
C2254       C  0.51889420  0.54104739  0.67797474    -0.10100
C2255       C  0.53245324  0.55035488  0.66576897    -0.11000
C2256       C  0.55202964  0.55240704  0.67171041     0.20600
C2257       C  0.55800781  0.54490476  0.68976206    -0.13000
C2258       C  0.54448948  0.53563298  0.70193313    -0.11300
C2259       C  0.56586442  0.56309299  0.65997085     0.01500
C2260       C  0.57812629  0.57288987  0.65192708    -0.31300
C2261       C  0.51095967  0.52489668  0.70923405     0.02900
C2262       C  0.50038414  0.51749049  0.72123605    -0.33000
H2263       H  0.50375168  0.53973024  0.67335715     0.14000
H2264       H  0.52763199  0.55618718  0.65189412     0.13800
H2265       H  0.57306821  0.54649693  0.69456991     0.13600
H2266       H  0.54928090  0.53011829  0.71595210     0.12700
C2267       C  0.71755147  0.72927259  0.55860450     0.19000
C2268       C  0.72472760  0.71014147  0.55982096    -0.10100
C2269       C  0.71530030  0.69643683  0.57167040    -0.11000
C2270       C  0.69863632  0.70178073  0.58239470     0.20600
C2271       C  0.69168451  0.72101276  0.58147562    -0.13000
C2272       C  0.70111434  0.73472331  0.56961677    -0.11300
C2273       C  0.68800889  0.68728363  0.59336122     0.01500
C2274       C  0.67835313  0.67492465  0.60141576    -0.31300
C2275       C  0.72644524  0.74290898  0.54527140     0.02900
C2276       C  0.73377936  0.75333640  0.53311522    -0.33000
H2277       H  0.73736976  0.70571834  0.55131229     0.14000
H2278       H  0.72075707  0.68160230  0.57215998     0.13800
H2279       H  0.67875160  0.72530124  0.58960779     0.13600
H2280       H  0.69537176  0.74942979  0.56874039     0.12700
C2281       C  0.67856052  0.54306176  0.55954960     0.19000
C2282       C  0.69284697  0.53228608  0.56954650    -0.10100
C2283       C  0.70491406  0.51924756  0.55939109    -0.11000
C2284       C  0.70277090  0.51689785  0.53917758     0.20600
C2285       C  0.68829080  0.52745593  0.52921127    -0.13000
C2286       C  0.67621180  0.54051129  0.53937779    -0.11300
C2287       C  0.71600824  0.50434673  0.52859620     0.01500
C2288       C  0.72781522  0.49455771  0.51983908    -0.31300
C2289       C  0.66704095  0.55734372  0.56992298     0.02900
C2290       C  0.65870293  0.56969393  0.57937336    -0.33000
H2291       H  0.69486468  0.53419949  0.58512092     0.14000
H2292       H  0.71611120  0.51123855  0.56724436     0.13800
H2293       H  0.68655412  0.52582724  0.51357426     0.13600
H2294       H  0.66528028  0.54882535  0.53147662     0.12700
C2295       C  0.73414184  0.54572553  0.71375270     0.19000
C2296       C  0.74101667  0.56308282  0.70541556    -0.10100
C2297       C  0.72792914  0.57578995  0.69611972    -0.11000
C2298       C  0.70792045  0.57120029  0.69516174     0.20600
C2299       C  0.70105904  0.55390649  0.70360722    -0.13000
C2300       C  0.71412206  0.54122071  0.71288067    -0.11300
C2301       C  0.69450094  0.58368041  0.68479079     0.01500
C2302       C  0.68287477  0.59287830  0.67523752    -0.31300
C2303       C  0.74749341  0.53241889  0.72314785     0.02900
C2304       C  0.75773619  0.52063771  0.73133783    -0.33000
H2305       H  0.75646093  0.56671847  0.70599431     0.14000
H2306       H  0.73342152  0.58906171  0.68953655     0.13800
H2307       H  0.68565016  0.55014046  0.70285472     0.13600
H2308       H  0.70863381  0.52784612  0.71926375     0.12700
C2309       C  0.54268040  0.68929759  0.52095055     0.19000
C2310       C  0.53920392  0.69244568  0.54087505    -0.10100
C2311       C  0.54875450  0.68103656  0.55484461    -0.11000
C2312       C  0.56182873  0.66639230  0.54896957     0.20600
C2313       C  0.56497146  0.66292608  0.52903156    -0.13000
C2314       C  0.55541153  0.67436023  0.51503831    -0.11300
C2315       C  0.57288724  0.65581948  0.56340370     0.01500
C2316       C  0.58291286  0.64806366  0.57564794    -0.31300
C2317       C  0.53403187  0.70221876  0.50681518     0.02900
C2318       C  0.52695641  0.71450311  0.49638950    -0.33000
H2319       H  0.52945396  0.70400959  0.54561674     0.14000
H2320       H  0.54628424  0.68391881  0.57020778     0.13800
H2321       H  0.57512405  0.65170023  0.52432506     0.13600
H2322       H  0.55826954  0.67184700  0.49968213     0.12700
C2323       C  0.55577089  0.70586958  0.73195401     0.19000
C2324       C  0.56317457  0.68722599  0.73593756    -0.10100
C2325       C  0.57604838  0.67823098  0.72279690    -0.11000
C2326       C  0.58159090  0.68782679  0.70561308     0.20600
C2327       C  0.57439937  0.70657946  0.70176096    -0.13000
C2328       C  0.56153018  0.71557692  0.71490433    -0.11300
C2329       C  0.59369890  0.67794375  0.69146901     0.01500
C2330       C  0.60265034  0.66856449  0.67949716    -0.31300
C2331       C  0.54170330  0.71476034  0.74490936     0.02900
C2332       C  0.52933355  0.72245629  0.75489501    -0.33000
H2333       H  0.55877137  0.67954514  0.74901823     0.14000
H2334       H  0.58140910  0.66366970  0.72586768     0.13800
H2335       H  0.57846609  0.71408662  0.68847269     0.13600
H2336       H  0.55583685  0.72996682  0.71162773     0.12700
loop_ 
_geom_bond_atom_site_label_1 
_geom_bond_atom_site_label_2 
_geom_bond_distance 
_geom_bond_site_symmetry_2 
_ccdc_geom_bond_type 
O1           C17   1.274       .  A
O1           Zn7   2.031       .  S
C2           O18   1.274       .  A
C2           O15   1.274       .  A
C2         C2274   1.438       .  S
O3           C16   1.274       .  A
O3          Cd10   2.075       .  S
O4           C22   1.273       .  A
O4          Cd13   2.065       .  S
O5           C19   1.274       .  A
O5           Cd9   2.074       .  S
O6           C17   1.272       .  A
O6           Cd9   2.065       .  S
Zn7          O18   2.027       .  S
Zn7          O20   2.019       .  S
Zn7          O12   1.949       .  S
O8           C19   1.273       .  A
O8          Cd13   2.070       .  S
Cd9          O11   2.066       .  S
Cd9          O12   1.999       .  S
Cd10         O14   2.082       .  S
Cd10         O23   2.081       .  S
Cd10         O12   2.012       .  S
O11          C21   1.273       .  A
O12         Cd13   2.001       .  S
Cd13         O15   2.075       .  S
O14          C21   1.274       .  A
C16          O20   1.273       .  A
C16        C2316   1.436       .  S
C17        C2330   1.436       .  S
C19        C2302   1.436       .  S
C21        C2260   1.437       .  S
C22          O23   1.275       .  A
C22        C2290   1.436       .  S
O24          C40   1.275       .  A
O24         Zn30   2.035       .  S
C25          O41   1.274       .  A
C25          O38   1.274       .  A
C25        C2176   1.438       .  S
O26          C39   1.275       .  A
O26         Cd33   2.083       .  S
O27          C45   1.273       .  A
O27         Cd36   2.066       .  S
O28          C42   1.274       .  A
O28         Cd32   2.080       .  S
O29          C40   1.273       .  A
O29         Cd32   2.069       .  S
Zn30         O41   2.025       .  S
Zn30         O43   2.020       .  S
Zn30         O35   1.951       .  S
O31          C42   1.274       .  A
O31         Cd36   2.073       .  S
Cd32         O34   2.068       .  S
Cd32         O35   2.002       .  S
Cd33         O37   2.086       .  S
Cd33         O46   2.085       .  S
Cd33         O35   2.014       .  S
O34          C44   1.273       .  A
O35         Cd36   2.003       .  S
Cd36         O38   2.074       .  S
O37          C44   1.275       .  A
C39          O43   1.273       .  A
C39        C2204   1.439       .  S
C40        C2246   1.438       .  S
C42        C2232   1.438       .  S
C44        C2218   1.438       .  S
C45          O46   1.275       .  A
C45        C2190   1.437       .  S
O47          C63   1.275       .  A
O47         Zn53   2.031       .  S
C48          O64   1.274       .  A
C48          O61   1.274       .  A
C48        C2148   1.440       .  S
O49          C62   1.275       .  A
O49         Cd56   2.082       .  S
O50          C68   1.273       .  A
O50         Cd59   2.067       .  S
O51          C65   1.275       .  A
O51         Cd55   2.078       .  S
O52          C63   1.273       .  A
O52         Cd55   2.070       .  S
Zn53         O64   2.029       .  S
Zn53         O66   2.016       .  S
Zn53         O58   1.949       .  S
O54          C65   1.274       .  A
O54         Cd59   2.073       .  S
Cd55         O57   2.073       .  S
Cd55         O58   2.002       .  S
Cd56         O60   2.085       .  S
Cd56         O69   2.083       .  S
Cd56         O58   2.012       .  S
O57          C67   1.274       .  A
O58         Cd59   2.002       .  S
Cd59         O61   2.077       .  S
O60          C67   1.275       .  A
C62          O66   1.273       .  A
C62        C2162   1.438       .  S
C63        C2120   1.438       .  S
C65        C2092   1.437       .  S
C67        C2106   1.440       .  S
C68          O69   1.275       .  A
C68        C2134   1.437       .  S
C70        C2064   1.441       .  S
C70          N71   1.359       .  A
C70          N75   1.360   1_554  A
N71          C72   1.358       .  A
C72        C2150   1.440       .  S
C72          N73   1.357       .  A
N73          C74   1.357   1_554  A
C74        C2078   1.439       .  S
C74          N75   1.359       .  A
C76        C2050   1.443       .  S
C76          N77   1.360       .  A
C76          N81   1.361       .  A
N77          C78   1.359       .  A
C78        C2122   1.439       .  S
C78          N79   1.356       .  A
N79          C80   1.356       .  A
C80        C2206   1.440       .  S
C80          N81   1.360       .  A
O82          C98   1.275       .  A
O82         Zn88   2.034       .  S
C83          O99   1.274       .  A
C83          O96   1.274       .  A
C83        C1980   1.439       .  S
O84          C97   1.275       .  A
O84         Cd91   2.081       .  S
O85         C103   1.273       .  A
O85         Cd94   2.070       .  S
O86         C100   1.275       .  A
O86         Cd90   2.079       .  S
O87          C98   1.273       .  A
O87         Cd90   2.072       .  S
Zn88         O99   2.029       .  S
Zn88        O101   2.018       .  S
Zn88         O93   1.949       .  S
O89         C100   1.273       .  A
O89         Cd94   2.070       .  S
Cd90         O92   2.069       .  S
Cd90         O93   2.002       .  S
Cd91         O95   2.083       .  S
Cd91        O104   2.085       .  S
Cd91         O93   2.012       .  S
O92         C102   1.273       .  A
O93         Cd94   2.000       .  S
Cd94         O96   2.074       .  S
O95         C102   1.275       .  A
C97         O101   1.273       .  A
C97        C1994   1.438       .  S
C98        C2036   1.440       .  S
C100       C2010   1.437       .  S
C102       C2024   1.438       .  S
C103        O104   1.275       .  A
C103       C2080   1.439       .  S
O105        C121   1.274       .  A
O105       Zn111   2.029       .  S
C106        O122   1.272       .  A
C106        O119   1.274       .  A
C106       C1954   1.435       .  S
O107        C120   1.275       .  A
O107       Cd114   2.086       .  S
O108        C126   1.273       .  A
O108       Cd117   2.066       .  S
O109        C123   1.274       .  A
O109       Cd113   2.074       .  S
O110        C121   1.273       .  A
O110       Cd113   2.068       .  S
Zn111       O122   2.017       .  S
Zn111       O124   2.015       .  S
Zn111       O116   1.946       .  S
O112        C123   1.273       .  A
O112       Cd117   2.071       .  S
Cd113       O115   2.064       .  S
Cd113       O116   1.999       .  S
Cd114       O118   2.087       .  S
Cd114       O127   2.086       .  S
Cd114       O116   2.013       .  S
O115        C125   1.273       .  A
O116       Cd117   2.001       .  S
Cd117       O119   2.074       .  S
O118        C125   1.276       .  A
C120        O124   1.273       .  A
C120       C1966   1.439       .  S
C121       C1924   1.437       .  S
C123       C1896   1.436       .  S
C125       C1910   1.437       .  S
C126        O127   1.276       .  A
C126       C1938   1.437       .  S
C128       C1884   1.439       .  S
C128        N129   1.359       .  A
C128        N133   1.359       .  A
N129        C130   1.358       .  A
C130       C1926   1.438       .  S
C130        N131   1.356       .  A
N131        C132   1.356       .  A
C132       C1996   1.438       .  S
C132        N133   1.358       .  A
C134       C1868   1.442       .  S
C134        N135   1.361       .  A
C134        N139   1.360       .  A
N135        C136   1.359       .  A
C136       C2038   1.440       .  S
C136        N137   1.357       .  A
N137        C138   1.357       .  A
C138       C1968   1.440       .  S
C138        N139   1.359       .  A
C140       C1840   1.439       .  S
C140        N141   1.359       .  A
C140        N145   1.360   1_545  A
N141        C142   1.358       .  A
C142       C1952   1.437       .  S
C142        N143   1.356       .  A
N143        C144   1.356   1_545  A
C144       C1854   1.439       .  S
C144        N145   1.359       .  A
C146       C1798   1.442       .  S
C146        N147   1.359       .  A
C146        N151   1.361   1_565  A
N147        C148   1.358       .  A
C148       C1812   1.438       .  S
C148        N149   1.356       .  A
N149        C150   1.356   1_565  A
C150       C1826   1.440       .  S
C150        N151   1.360       .  A
C152       C1772   1.440       .  S
C152        N153   1.360       .  A
C152        N157   1.360   1_554  A
N153        C154   1.358       .  A
C154       C1786   1.437       .  S
C154        N155   1.355       .  A
N155        C156   1.355   1_554  A
C156       C1912   1.438       .  S
C156        N157   1.359       .  A
C158       C1742   1.440       .  S
C158        N159   1.359   1_554  A
C158        N163   1.361       .  A
N159        C160   1.358       .  A
C160       C1898   1.436       .  S
C160        N161   1.355   1_556  A
N161        C162   1.356       .  A
C162       C1756   1.439       .  S
C162        N163   1.359       .  A
C164       C1700   1.440       .  S
C164        N165   1.359   1_545  A
C164        N169   1.360       .  A
N165        C166   1.358       .  A
C166       C1714   1.438       .  S
C166        N167   1.356       .  A
N167        C168   1.356   1_565  A
C168       C1730   1.439       .  S
C168        N169   1.359       .  A
C170       C1674   1.439       .  S
C170        N171   1.359   1_455  A
C170        N175   1.359       .  A
N171        C172   1.358       .  A
C172       C2094   1.437       .  S
C172        N173   1.356   1_655  A
N173        C174   1.356       .  A
C174       C1688   1.438       .  S
C174        N175   1.358       .  A
C176       C1644   1.442       .  S
C176        N177   1.360   1_455  A
C176        N181   1.360       .  A
N177        C178   1.359       .  A
C178       C2108   1.440       .  S
C178        N179   1.356   1_655  A
N179        C180   1.356       .  A
C180       C1660   1.439       .  S
C180        N181   1.359       .  A
O182        C198   1.275       .  A
O182       Zn188   2.033       .  S
C183        O199   1.274       .  A
C183        O196   1.274       .  A
C183       C1758   1.439       .  S
O184        C197   1.275       .  A
O184       Cd191   2.082       .  S
O185        C203   1.273       .  A
O185       Cd194   2.066       .  S
O186        C200   1.275       .  A
O186       Cd190   2.082       .  S
O187        C198   1.274       .  A
O187       Cd190   2.073       .  S
Zn188       O199   2.026       .  S
Zn188       O201   2.019       .  S
Zn188       O193   1.950       .  S
O189        C200   1.273       .  A
O189       Cd194   2.071       .  S
Cd190       O192   2.070       .  S
Cd190       O193   2.002       .  S
Cd191       O195   2.085       .  S
Cd191       O204   2.082       .  S
Cd191       O193   2.014       .  S
O192        C202   1.273       .  A
O193       Cd194   2.002       .  S
Cd194       O196   2.077       .  S
O195        C202   1.275       .  A
C197        O201   1.273       .  A
C197       C1728   1.438       .  S
C198       C1828   1.439       .  S
C200       C1686   1.438       .  S
C202       C1658   1.439       .  S
C203        O204   1.275       .  A
C203       C1784   1.436       .  S
O205        C221   1.274       .  A
O205       Zn211   2.031       .  S
C206        O222   1.274       .  A
C206        O219   1.274       .  A
C206       C1856   1.440       .  S
O207        C220   1.274       .  A
O207       Cd214   2.077       .  S
O208        C226   1.273       .  A
O208       Cd217   2.066       .  S
O209        C223   1.274       .  A
O209       Cd213   2.077       .  S
O210        C221   1.273       .  A
O210       Cd213   2.068       .  S
Zn211       O222   2.030       .  S
Zn211       O224   2.014       .  S
Zn211       O216   1.950       .  S
O212        C223   1.273       .  A
O212       Cd217   2.071       .  S
Cd213       O215   2.071       .  S
Cd213       O216   2.001       .  S
Cd214       O218   2.082       .  S
Cd214       O227   2.078       .  S
Cd214       O216   2.013       .  S
O215        C225   1.273       .  A
O216       Cd217   2.001       .  S
Cd217       O219   2.076       .  S
O218        C225   1.274       .  A
C220        O224   1.272       .  A
C220       C1616   1.435       .  S
C221       C1602   1.437       .  S
C223       C1588   1.436       .  S
C225       C1630   1.438       .  S
C226        O227   1.274       .  A
C226       C1574   1.435       .  S
O228        C244   1.274       .  A
O228       Zn234   2.031       .  S
C229        O245   1.274       .  A
C229        O242   1.273       .  A
C229       C1518   1.435       .  S
O230        C243   1.274       .  A
O230       Cd237   2.079       .  S
O231        C249   1.273       .  A
O231       Cd240   2.070       .  S
O232        C246   1.274       .  A
O232       Cd236   2.077       .  S
O233        C244   1.273       .  A
O233       Cd236   2.070       .  S
Zn234       O245   2.023       .  S
Zn234       O247   2.017       .  S
Zn234       O239   1.950       .  S
O235        C246   1.273       .  A
O235       Cd240   2.071       .  S
Cd236       O238   2.067       .  S
Cd236       O239   2.002       .  S
Cd237       O241   2.079       .  S
Cd237       O250   2.082       .  S
Cd237       O239   2.012       .  S
O238        C248   1.273       .  A
O239       Cd240   2.001       .  S
Cd240       O242   2.069       .  S
O241        C248   1.274       .  A
C243        O247   1.273       .  A
C243       C1716   1.437       .  S
C244       C1814   1.438       .  S
C246       C1532   1.436       .  S
C248       C1548   1.435       .  S
C249        O250   1.275       .  A
C249       C1560   1.438       .  S
C251       C1504   1.439       .  S
C251        N252   1.360   1_455  A
C251        N256   1.359       .  A
N252        C253   1.359       .  A
C253       C2192   1.437       .  S
C253        N254   1.356   1_655  A
N254        C255   1.356       .  A
C255       C1534   1.437       .  S
C255        N256   1.358       .  A
C257       C1490   1.438       .  S
C257        N258   1.359       .  A
C257        N262   1.358       .  A
N258        C259   1.358       .  A
C259       C1590   1.437       .  S
C259        N260   1.356       .  A
N260        C261   1.356       .  A
C261       C1520   1.436       .  S
C261        N262   1.357       .  A
C263       C1476   1.442       .  S
C263        N264   1.360       .  A
C263        N268   1.360       .  A
N264        C265   1.359       .  A
C265       C1562   1.439       .  S
C265        N266   1.356       .  A
N266        C267   1.356       .  A
C267       C1632   1.439       .  S
C267        N268   1.359       .  A
C269       C1462   1.440       .  S
C269        N270   1.360   1_455  A
C269        N274   1.360       .  A
N270        C271   1.359       .  A
C271       C2178   1.438       .  S
C271        N272   1.355   1_655  A
N272        C273   1.355       .  A
C273       C1546   1.436       .  S
C273        N274   1.358       .  A
C275       C1450   1.438       .  S
C275        N276   1.359       .  A
C275        N280   1.359   1_565  A
N276        C277   1.358       .  A
C277       C1576   1.436       .  S
C277        N278   1.356       .  A
N278        C279   1.356   1_565  A
C279       C1940   1.437       .  S
C279        N280   1.358       .  A
C281       C1436   1.439       .  S
C281        N282   1.359       .  A
C281        N286   1.360   1_554  A
N282        C283   1.358       .  A
C283       C2136   1.438       .  S
C283        N284   1.356       .  A
N284        C285   1.357   1_554  A
C285       C1982   1.439       .  S
C285        N286   1.359       .  A
C287       C1422   1.439       .  S
C287        N288   1.359       .  A
C287        N292   1.359       .  A
N288        C289   1.358       .  A
C289       C2332   1.437       .  S
C289        N290   1.356       .  A
N290        C291   1.356       .  A
C291       C1618   1.436       .  S
C291        N292   1.358       .  A
C293       C1406   1.439       .  S
C293        N294   1.360       .  A
C293        N298   1.360       .  A
N294        C295   1.358       .  A
C295       C2318   1.435       .  S
C295        N296   1.355       .  A
N296        C297   1.355       .  A
C297       C1604   1.437       .  S
C297        N298   1.359       .  A
C299       C1392   1.440       .  S
C299        N300   1.360       .  A
C299        N304   1.360       .  A
N300        C301   1.358       .  A
C301       C2234   1.438       .  S
C301        N302   1.356       .  A
N302        C303   1.356       .  A
C303       C2276   1.438       .  S
C303        N304   1.359       .  A
C305       C1378   1.439       .  S
C305        N306   1.360       .  A
C305        N310   1.359       .  A
N306        C307   1.359       .  A
C307       C2022   1.438       .  S
C307        N308   1.356       .  A
N308        C309   1.356       .  A
C309       C2262   1.437       .  S
C309        N310   1.358       .  A
C311       C1366   1.439       .  S
C311        N312   1.359       .  A
C311        N316   1.360       .  A
N312        C313   1.358       .  A
C313       C2304   1.437       .  S
C313        N314   1.356       .  A
N314        C315   1.356       .  A
C315       C2008   1.438       .  S
C315        N316   1.359       .  A
C317       C1350   1.439       .  S
C317        N318   1.359       .  A
C317        N322   1.360       .  A
N318        C319   1.358       .  A
C319       C2288   1.437       .  S
C319        N320   1.356       .  A
N320        C321   1.357       .  A
C321       C2220   1.439       .  S
C321        N322   1.359       .  A
C323       C1336   1.440       .  S
C323        N324   1.359       .  A
C323        N328   1.360       .  A
N324        C325   1.358       .  A
C325       C2164   1.438       .  S
C325        N326   1.356       .  A
N326        C327   1.356       .  A
C327       C2248   1.439       .  S
C327        N328   1.359       .  A
O329        C345   1.274       .  A
O329       Zn335   2.026       .  S
C330        O346   1.275       .  A
C330        O343   1.273       .  A
C330       C1294   1.439       .  S
O331        C344   1.274       .  A
O331       Cd338   2.076       .  S
O332        C350   1.273       .  A
O332       Cd341   2.070       .  S
O333        C347   1.273       .  A
O333       Cd337   2.069       .  S
O334        C345   1.273       .  A
O334       Cd337   2.069       .  S
Zn335       O346   2.035       .  S
Zn335       O348   2.017       .  S
Zn335       O340   1.951       .  S
O336        C347   1.274       .  A
O336       Cd341   2.076       .  S
Cd337       O339   2.070       .  S
Cd337       O340   2.001       .  S
Cd338       O342   2.083       .  S
Cd338       O351   2.083       .  S
Cd338       O340   2.012       .  S
O339        C349   1.273       .  A
O340       Cd341   2.002       .  S
Cd341       O343   2.071       .  S
O342        C349   1.275       .  A
C344        O348   1.273       .  A
C344       C1324   1.436       .  S
C345       C1266   1.436       .  S
C347       C1308   1.435       .  S
C349       C1280   1.438       .  S
C350        O351   1.275       .  A
C350       C1254   1.438       .  S
O352        C368   1.274       .  A
O352       Zn358   2.024       .  S
C353        O369   1.275       .  A
C353        O366   1.273       .  A
C353       C1184   1.440       .  S
O354        C367   1.275       .  A
O354       Cd361   2.081       .  S
O355        C373   1.273       .  A
O355       Cd364   2.066       .  S
O356        C370   1.273       .  A
O356       Cd360   2.070       .  S
O357        C368   1.274       .  A
O357       Cd360   2.072       .  S
Zn358       O369   2.034       .  S
Zn358       O371   2.019       .  S
Zn358       O363   1.950       .  S
O359        C370   1.275       .  A
O359       Cd364   2.079       .  S
Cd360       O362   2.070       .  S
Cd360       O363   2.001       .  S
Cd361       O365   2.088       .  S
Cd361       O374   2.080       .  S
Cd361       O363   2.012       .  S
O362        C372   1.273       .  A
O363       Cd364   2.001       .  S
Cd364       O366   2.072       .  S
O365        C372   1.276       .  A
C367        O371   1.273       .  A
C367       C1170   1.438       .  S
C368       C1210   1.436       .  S
C370       C1196   1.437       .  S
C372       C1226   1.440       .  S
C373        O374   1.275       .  A
C373       C1240   1.436       .  S
C375       C1870   1.443       .  S
C375        N376   1.361       .  A
C375        N380   1.361       .  A
N376        C377   1.359       .  A
C377       C1156   1.440       .  S
C377        N378   1.356       .  A
N378        C379   1.356       .  A
C379       C1224   1.440       .  S
C379        N380   1.360       .  A
O381        C397   1.273       .  A
O381       Zn387   2.021       .  S
C382        O398   1.274       .  A
C382        O395   1.274       .  A
C382       C1128   1.441       .  S
O383        C396   1.274       .  A
O383       Cd390   2.080       .  S
O384        C402   1.273       .  A
O384       Cd393   2.070       .  S
O385        C399   1.273       .  A
O385       Cd389   2.071       .  S
O386        C397   1.274       .  A
O386       Cd389   2.075       .  S
Zn387       O398   2.033       .  S
Zn387       O400   2.013       .  S
Zn387       O392   1.950       .  S
O388        C399   1.275       .  A
O388       Cd393   2.079       .  S
Cd389       O391   2.070       .  S
Cd389       O392   2.004       .  S
Cd390       O394   2.088       .  S
Cd390       O403   2.084       .  S
Cd390       O392   2.015       .  S
O391        C401   1.273       .  A
O392       Cd393   2.004       .  S
Cd393       O395   2.076       .  S
O394        C401   1.275       .  A
C396        O400   1.272       .  A
C396       C1098   1.436       .  S
C397       C1140   1.437       .  S
C399       C1112   1.437       .  S
C401       C1154   1.440       .  S
C402        O403   1.275       .  A
C402       C1084   1.438       .  S
C404       C1338   1.440       .  S
C404        N405   1.360       .  A
C404        N409   1.360       .  A
N405        C406   1.358       .  A
C406       C1100   1.437       .  S
C406        N407   1.356       .  A
N407        C408   1.355       .  A
C408       C1070   1.437       .  S
C408        N409   1.358       .  A
C410       C1420   1.440       .  S
C410        N411   1.360       .  A
C410        N415   1.360       .  A
N411        C412   1.359       .  A
C412       C1044   1.438       .  S
C412        N413   1.356       .  A
N413        C414   1.356       .  A
C414       C1056   1.439       .  S
C414        N415   1.359       .  A
O416        C432   1.273       .  A
O416       Zn422   2.022       .  S
C417        O433   1.274       .  A
C417        O430   1.273       .  A
C417       C1072   1.437       .  S
O418        C431   1.276       .  A
O418       Cd425   2.091       .  S
O419        C437   1.273       .  A
O419       Cd428   2.067       .  S
O420        C434   1.273       .  A
O420       Cd424   2.071       .  S
O421        C432   1.273       .  A
O421       Cd424   2.073       .  S
Zn422       O433   2.027       .  S
Zn422       O435   2.018       .  S
Zn422       O427   1.949       .  S
O423        C434   1.275       .  A
O423       Cd428   2.083       .  S
Cd424       O426   2.065       .  S
Cd424       O427   2.001       .  S
Cd425       O429   2.086       .  S
Cd425       O438   2.087       .  S
Cd425       O427   2.015       .  S
O426        C436   1.273       .  A
O427       Cd428   2.003       .  S
Cd428       O430   2.070       .  S
O429        C436   1.276       .  A
C431        O435   1.273       .  A
C431        C986   1.441       .  S
C432       C1002   1.437       .  S
C434       C1058   1.439       .  S
C436       C1016   1.437       .  S
C437        O438   1.276       .  A
C437       C1028   1.438       .  S
C439       C1478   1.442       .  S
C439        N440   1.360       .  A
C439        N444   1.360       .  A
N440        C441   1.359       .  A
C441       C1086   1.439       .  S
C441        N442   1.356       .  A
N442        C443   1.356       .  A
C443       C1252   1.438       .  S
C443        N444   1.359       .  A
O445        C461   1.274       .  A
O445       Zn451   2.029       .  S
C446        O462   1.275       .  A
C446        O459   1.273       .  A
C446       C1042   1.439       .  S
O447        C460   1.273       .  A
O447       Cd454   2.074       .  S
O448        C466   1.274       .  A
O448       Cd457   2.073       .  S
O449        C463   1.273       .  A
O449       Cd453   2.072       .  S
O450        C461   1.273       .  A
O450       Cd453   2.072       .  S
Zn451       O462   2.035       .  S
Zn451       O464   2.021       .  S
Zn451       O456   1.953       .  S
O452        C463   1.274       .  A
O452       Cd457   2.078       .  S
Cd453       O455   2.069       .  S
Cd453       O456   2.002       .  S
Cd454       O458   2.080       .  S
Cd454       O467   2.077       .  S
Cd454       O456   2.011       .  S
O455        C465   1.273       .  A
O456       Cd457   2.003       .  S
Cd457       O459   2.070       .  S
O458        C465   1.274       .  A
C460        O464   1.273       .  A
C460        C958   1.436       .  S
C461        C916   1.438       .  S
C463        C944   1.437       .  S
C465        C932   1.437       .  S
C466        O467   1.274       .  A
C466        C972   1.437       .  S
C468       C2066   1.440       .  S
C468        N469   1.359       .  A
C468        N473   1.360   1_554  A
N469        C470   1.358       .  A
C470        C974   1.437       .  S
C470        N471   1.356       .  A
N471        C472   1.356   1_554  A
C472        C902   1.439       .  S
C472        N473   1.359       .  A
O474        C490   1.273       .  A
O474       Zn480   2.021       .  S
C475        O491   1.274       .  A
C475        O488   1.273       .  A
C475        C888   1.436       .  S
O476        C489   1.274       .  A
O476       Cd483   2.078       .  S
O477        C495   1.273       .  A
O477       Cd486   2.069       .  S
O478        C492   1.274       .  A
O478       Cd482   2.073       .  S
O479        C490   1.273       .  A
O479       Cd482   2.072       .  S
Zn480       O491   2.027       .  S
Zn480       O493   2.017       .  S
Zn480       O485   1.948       .  S
O481        C492   1.274       .  A
O481       Cd486   2.077       .  S
Cd482       O484   2.067       .  S
Cd482       O485   2.001       .  S
Cd483       O487   2.084       .  S
Cd483       O496   2.082       .  S
Cd483       O485   2.012       .  S
O484        C494   1.273       .  A
O485       Cd486   2.001       .  S
Cd486       O488   2.069       .  S
O487        C494   1.275       .  A
C489        O493   1.273       .  A
C489        C846   1.437       .  S
C490        C820   1.436       .  S
C492        C862   1.437       .  S
C494        C834   1.437       .  S
C495        O496   1.275       .  A
C495        C874   1.437       .  S
C497       C1842   1.439       .  S
C497        N498   1.360       .  A
C497        N502   1.359   1_565  A
N498        C499   1.359       .  A
C499        C806   1.438       .  S
C499        N500   1.356       .  A
N500        C501   1.356   1_565  A
C501        C890   1.437       .  S
C501        N502   1.358       .  A
O503        C519   1.274       .  A
O503       Zn509   2.025       .  S
C504        O520   1.275       .  A
C504        O517   1.272       .  A
C504        C750   1.438       .  S
O505        C518   1.274       .  A
O505       Cd512   2.079       .  S
O506        C524   1.273       .  A
O506       Cd515   2.066       .  S
O507        C521   1.274       .  A
O507       Cd511   2.074       .  S
O508        C519   1.274       .  A
O508       Cd511   2.074       .  S
Zn509       O520   2.036       .  S
Zn509       O522   2.019       .  S
Zn509       O514   1.950       .  S
O510        C521   1.274       .  A
O510       Cd515   2.076       .  S
Cd511       O513   2.073       .  S
Cd511       O514   2.001       .  S
Cd512       O516   2.082       .  S
Cd512       O525   2.080       .  S
Cd512       O514   2.012       .  S
O513        C523   1.274       .  A
O514       Cd515   2.000       .  S
Cd515       O517   2.066       .  S
O516        C523   1.275       .  A
C518        O522   1.273       .  A
C518        C804   1.438       .  S
C519        C762   1.437       .  S
C521        C776   1.437       .  S
C523        C904   1.439       .  S
C524        O525   1.274       .  A
C524        C790   1.436       .  S
O526        C542   1.274       .  A
O526       Zn532   2.024       .  S
C527        O543   1.275       .  A
C527        O540   1.273       .  A
C527        C678   1.439       .  S
O528        C541   1.274       .  A
O528       Cd535   2.081       .  S
O529        C547   1.273       .  A
O529       Cd538   2.066       .  S
O530        C544   1.274       .  A
O530       Cd534   2.080       .  S
O531        C542   1.275       .  A
O531       Cd534   2.079       .  S
Zn532       O543   2.032       .  S
Zn532       O545   2.021       .  S
Zn532       O537   1.950       .  S
O533        C544   1.275       .  A
O533       Cd538   2.082       .  S
Cd534       O536   2.070       .  S
Cd534       O537   2.004       .  S
Cd535       O539   2.083       .  S
Cd535       O548   2.083       .  S
Cd535       O537   2.014       .  S
O536        C546   1.273       .  A
O537       Cd538   2.002       .  S
Cd538       O540   2.072       .  S
O539        C546   1.275       .  A
C541        O545   1.273       .  A
C541        C664   1.439       .  S
C542        C692   1.439       .  S
C544        C720   1.441       .  S
C546        C734   1.438       .  S
C547        O548   1.275       .  A
C547        C706   1.437       .  S
C549       C1506   1.439       .  S
C549        N550   1.360       .  A
C549        N554   1.359   1_455  A
N550        C551   1.358       .  A
C551        C736   1.438       .  S
C551        N552   1.356       .  A
N552        C553   1.356   1_455  A
C553        C792   1.436       .  S
C553        N554   1.358       .  A
C555       C1364   1.440       .  S
C555        N556   1.359       .  A
C555        N560   1.360       .  A
N556        C557   1.358       .  A
C557       C1322   1.437       .  S
C557        N558   1.356       .  A
N558        C559   1.356       .  A
C559        C722   1.440   1_655  S
C559        N560   1.359       .  A
C561       C1380   1.439       .  S
C561        N562   1.360       .  A
C561        N566   1.359       .  A
N562        C563   1.359       .  A
C563       C1296   1.439       .  S
C563        N564   1.357       .  A
N564        C565   1.356       .  A
C565        C708   1.437       .  S
C565        N566   1.358       .  A
C567       C1394   1.439       .  S
C567        N568   1.359       .  A
C567        N572   1.360       .  A
N568        C569   1.357       .  A
C569       C1238   1.436       .  S
C569        N570   1.356       .  A
N570        C571   1.356       .  A
C571        C876   1.438       .  S
C571        N572   1.359       .  A
C573       C1646   1.441       .  S
C573        N574   1.360       .  A
C573        N578   1.360   1_455  A
N574        C575   1.359       .  A
C575       C1282   1.438       .  S
C575        N576   1.355       .  A
N576        C577   1.356   1_455  A
C577        C832   1.438       .  S
C577        N578   1.359       .  A
C579       C1672   1.438       .  S
C579        N580   1.359       .  A
C579        N584   1.359   1_455  A
N580        C581   1.358       .  A
C581       C1268   1.436       .  S
C581        N582   1.356       .  A
N582        C583   1.356   1_455  A
C583        C818   1.437       .  S
C583        N584   1.358       .  A
C585       C1408   1.439       .  S
C585        N586   1.360       .  A
C585        N590   1.359       .  A
N586        C587   1.359       .  A
C587       C1030   1.438       .  S
C587        N588   1.356       .  A
N588        C589   1.356       .  A
C589        C960   1.436       .  S
C589        N590   1.358       .  A
C591       C1800   1.442       .  S
C591        N592   1.360       .  A
C591        N596   1.360   1_565  A
N592        C593   1.359       .  A
C593        C930   1.438       .  S
C593        N594   1.356       .  A
N594        C595   1.356   1_565  A
C595       C1182   1.439       .  S
C595        N596   1.359       .  A
C597       C1744   1.440       .  S
C597        N598   1.359       .  A
C597        N602   1.360   1_554  A
N598        C599   1.358       .  A
C599       C1014   1.438       .  S
C599        N600   1.357       .  A
N600        C601   1.357   1_554  A
C601        C666   1.439       .  S
C601        N602   1.359       .  A
C603       C1352   1.439       .  S
C603        N604   1.359       .  A
C603        N608   1.359       .  A
N604        C605   1.358       .  A
C605        C860   1.437       .  S
C605        N606   1.356       .  A
N606        C607   1.356       .  A
C607       C1198   1.438       .  S
C607        N608   1.358       .  A
C609       C2052   1.444       .  S
C609        N610   1.361       .  A
C609        N614   1.361       .  A
N610        C611   1.360       .  A
C611       C1126   1.441       .  S
C611        N612   1.356       .  A
N612        C613   1.356       .  A
C613        C988   1.441       .  S
C613        N614   1.359       .  A
C615       C1770   1.440       .  S
C615        N616   1.359       .  A
C615        N620   1.360   1_554  A
N616        C617   1.358       .  A
C617       C1000   1.437       .  S
C617        N618   1.356       .  A
N618        C619   1.356   1_554  A
C619        C680   1.438       .  S
C619        N620   1.359       .  A
C621       C1702   1.440       .  S
C621        N622   1.360       .  A
C621        N626   1.359   1_565  A
N622        C623   1.359       .  A
C623        C918   1.438       .  S
C623        N624   1.356       .  A
N624        C625   1.356   1_565  A
C625       C1168   1.438       .  S
C625        N626   1.358       .  A
C627       C1882   1.439       .  S
C627        N628   1.359       .  A
C627        N632   1.360       .  A
N628        C629   1.358       .  A
C629       C1212   1.436       .  S
C629        N630   1.355       .  A
N630        C631   1.356       .  A
C631       C1142   1.437       .  S
C631        N632   1.359       .  A
C633       C1492   1.438       .  S
C633        N634   1.359       .  A
C633        N638   1.360       .  A
N634        C635   1.357       .  A
C635       C1310   1.436       .  S
C635        N636   1.355       .  A
N636        C637   1.356       .  A
C637       C1114   1.437       .  S
C637        N638   1.359       .  A
C639       C1464   1.440       .  S
C639        N640   1.359   1_455  A
C639        N644   1.360       .  A
N640        C641   1.358       .  A
C641        C778   1.438       .  S
C641        N642   1.357   1_655  A
N642        C643   1.357       .  A
C643        C694   1.439       .  S
C643        N644   1.359       .  A
C645       C1434   1.439       .  S
C645        N646   1.359   1_554  A
C645        N650   1.359       .  A
N646        C647   1.358       .  A
C647        C764   1.438       .  S
C647        N648   1.356   1_556  A
N648        C649   1.357       .  A
C649        C946   1.438       .  S
C649        N650   1.358       .  A
C651       C1448   1.438       .  S
C651        N652   1.359       .  A
C651        N656   1.359   1_565  A
N652        C653   1.358       .  A
C653        C748   1.438       .  S
C653        N654   1.356       .  A
N654        C655   1.356   1_565  A
C655        C848   1.437       .  S
C655        N656   1.358       .  A
C657        C665   1.444       .  S
C657        C658   1.401       .  A
C657        C662   1.403       .  A
C658        C659   1.400       .  A
C658        H667   1.084       .  S
C659        C660   1.402       .  A
C659        H668   1.083       .  S
C660        C663   1.444       .  S
C660        C661   1.402       .  A
C661        C662   1.401       .  A
C661        H669   1.083       .  S
C662        H670   1.083       .  S
C663        C664   1.208       .  T
C665        C666   1.208       .  T
C671        C679   1.443       .  S
C671        C672   1.403       .  A
C671        C676   1.401       .  A
C672        C673   1.402       .  A
C672        H681   1.083       .  S
C673        C674   1.402       .  A
C673        H682   1.084       .  S
C674        C677   1.443       .  S
C674        C675   1.402       .  A
C675        C676   1.399       .  A
C675        H683   1.083       .  S
C676        H684   1.084       .  S
C677        C678   1.208       .  T
C679        C680   1.208       .  T
C685        C693   1.443       .  S
C685        C686   1.403       .  A
C685        C690   1.401       .  A
C686        C687   1.402       .  A
C686        H695   1.083       .  S
C687        C688   1.402       .  A
C687        H696   1.083       .  S
C688        C691   1.443       .  S
C688        C689   1.402       .  A
C689        C690   1.399       .  A
C689        H697   1.083       .  S
C690        H698   1.084       .  S
C691        C692   1.208       .  T
C693        C694   1.208   1_556  T
C699        C707   1.442       .  S
C699        C700   1.401       .  A
C699        C704   1.402       .  A
C700        C701   1.398       .  A
C700        H709   1.083       .  S
C701        C702   1.401       .  A
C701        H710   1.083       .  S
C702        C705   1.442       .  S
C702        C703   1.402       .  A
C703        C704   1.401       .  A
C703        H711   1.083       .  S
C704        H712   1.083       .  S
C705        C706   1.207       .  T
C707        C708   1.207       .  T
C713        C721   1.445       .  S
C713        C714   1.403       .  A
C713        C718   1.401       .  A
C714        C715   1.402       .  A
C714        H723   1.083       .  S
C715        C716   1.402       .  A
C715        H724   1.084       .  S
C716        C719   1.445       .  S
C716        C717   1.402       .  A
C717        C718   1.400       .  A
C717        H725   1.083       .  S
C718        H726   1.084       .  S
C719        C720   1.209       .  T
C721        C722   1.209       .  T
C727        C735   1.442       .  S
C727        C728   1.401       .  A
C727        C732   1.403       .  A
C728        C729   1.399       .  A
C728        H737   1.084       .  S
C729        C730   1.402       .  A
C729        H738   1.083       .  S
C730        C733   1.442       .  S
C730        C731   1.402       .  A
C731        C732   1.401       .  A
C731        H739   1.084       .  S
C732        H740   1.083       .  S
C733        C734   1.207       .  T
C735        C736   1.207       .  T
C741        C749   1.443       .  S
C741        C742   1.402       .  A
C741        C746   1.402       .  A
C742        C743   1.402       .  A
C742        H751   1.084       .  S
C743        C744   1.403       .  A
C743        H752   1.082       .  S
C744        C747   1.442       .  S
C744        C745   1.401       .  A
C745        C746   1.398       .  A
C745        H753   1.084       .  S
C746        H754   1.083       .  S
C747        C748   1.207   1_655  T
C749        C750   1.208       .  T
C755        C763   1.442       .  S
C755        C756   1.401       .  A
C755        C760   1.402       .  A
C756        C757   1.399       .  A
C756        H765   1.083       .  S
C757        C758   1.402       .  A
C757        H766   1.084       .  S
C758        C761   1.442       .  S
C758        C759   1.402       .  A
C759        C760   1.401       .  A
C759        H767   1.083       .  S
C760        H768   1.083       .  S
C761        C762   1.207       .  T
C763        C764   1.207   1_565  T
C769        C777   1.442       .  S
C769        C770   1.403       .  A
C769        C774   1.401       .  A
C770        C771   1.402       .  A
C770        H779   1.084       .  S
C771        C772   1.402       .  A
C771        H780   1.083       .  S
C772        C775   1.442       .  S
C772        C773   1.401       .  A
C773        C774   1.398       .  A
C773        H781   1.084       .  S
C774        H782   1.083       .  S
C775        C776   1.207       .  T
C777        C778   1.207   1_556  T
C783        C791   1.441       .  S
C783        C784   1.401       .  A
C783        C788   1.402       .  A
C784        C785   1.398       .  A
C784        H793   1.083       .  S
C785        C786   1.401       .  A
C785        H794   1.083       .  S
C786        C789   1.441       .  S
C786        C787   1.402       .  A
C787        C788   1.400       .  A
C787        H795   1.083       .  S
C788        H796   1.083       .  S
C789        C790   1.206       .  T
C791        C792   1.206       .  T
C797        C805   1.442       .  S
C797        C798   1.402       .  A
C797        C802   1.401       .  A
C798        C799   1.400       .  A
C798        H807   1.083       .  S
C799        C800   1.401       .  A
C799        H808   1.084       .  S
C800        C803   1.442       .  S
C800        C801   1.402       .  A
C801        C802   1.400       .  A
C801        H809   1.083       .  S
C802        H810   1.084       .  S
C803        C804   1.208       .  T
C805        C806   1.207       .  T
C811        C819   1.441       .  S
C811        C812   1.402       .  A
C811        C816   1.401       .  A
C812        C813   1.400       .  A
C812        H821   1.084       .  S
C813        C814   1.401       .  A
C813        H822   1.083       .  S
C814        C817   1.441       .  S
C814        C815   1.402       .  A
C815        C816   1.399       .  A
C815        H823   1.084       .  S
C816        H824   1.083       .  S
C817        C818   1.207       .  T
C819        C820   1.207       .  T
C825        C833   1.442       .  S
C825        C826   1.401       .  A
C825        C830   1.402       .  A
C826        C827   1.398       .  A
C826        H835   1.084       .  S
C827        C828   1.401       .  A
C827        H836   1.083       .  S
C828        C831   1.442       .  S
C828        C829   1.402       .  A
C829        C830   1.402       .  A
C829        H837   1.083       .  S
C830        H838   1.083       .  S
C831        C832   1.207       .  T
C833        C834   1.207       .  T
C839        C847   1.442       .  S
C839        C840   1.401       .  A
C839        C844   1.402       .  A
C840        C841   1.399       .  A
C840        H849   1.084       .  S
C841        C842   1.402       .  A
C841        H850   1.083       .  S
C842        C845   1.441       .  S
C842        C843   1.401       .  A
C843        C844   1.400       .  A
C843        H851   1.084       .  S
C844        H852   1.083       .  S
C845        C846   1.207       .  T
C847        C848   1.207   1_655  T
C853        C861   1.442       .  S
C853        C854   1.402       .  A
C853        C858   1.401       .  A
C854        C855   1.400       .  A
C854        H863   1.084       .  S
C855        C856   1.402       .  A
C855        H864   1.083       .  S
C856        C859   1.442       .  S
C856        C857   1.402       .  A
C857        C858   1.399       .  A
C857        H865   1.084       .  S
C858        H866   1.083       .  S
C859        C860   1.207       .  T
C861        C862   1.207       .  T
C867        C875   1.442       .  S
C867        C868   1.401       .  A
C867        C872   1.402       .  A
C868        C869   1.400       .  A
C868        H877   1.084       .  S
C869        C870   1.402       .  A
C869        H878   1.083       .  S
C870        C873   1.442       .  S
C870        C871   1.401       .  A
C871        C872   1.400       .  A
C871        H879   1.084       .  S
C872        H880   1.083       .  S
C873        C874   1.207       .  T
C875        C876   1.207   1_545  T
C881        C889   1.441       .  S
C881        C882   1.402       .  A
C881        C886   1.401       .  A
C882        C883   1.402       .  A
C882        H891   1.084       .  S
C883        C884   1.402       .  A
C883        H892   1.083       .  S
C884        C887   1.441       .  S
C884        C885   1.401       .  A
C885        C886   1.398       .  A
C885        H893   1.084       .  S
C886        H894   1.083       .  S
C887        C888   1.207       .  T
C889        C890   1.207       .  T
C895        C903   1.443       .  S
C895        C896   1.402       .  A
C895        C900   1.402       .  A
C896        C897   1.400       .  A
C896        H905   1.083       .  S
C897        C898   1.401       .  A
C897        H906   1.084       .  S
C898        C901   1.443       .  S
C898        C899   1.402       .  A
C899        C900   1.401       .  A
C899        H907   1.083       .  S
C900        H908   1.084       .  S
C901        C902   1.208       .  T
C903        C904   1.208       .  T
C909        C917   1.443       .  S
C909        C910   1.402       .  A
C909        C914   1.402       .  A
C910        C911   1.399       .  A
C910        H919   1.083       .  S
C911        C912   1.401       .  A
C911        H920   1.084       .  S
C912        C915   1.443       .  S
C912        C913   1.402       .  A
C913        C914   1.401       .  A
C913        H921   1.083       .  S
C914        H922   1.084       .  S
C915        C916   1.208       .  T
C917        C918   1.208       .  T
C923        C931   1.442       .  S
C923        C924   1.402       .  A
C923        C928   1.401       .  A
C924        C925   1.400       .  A
C924        H933   1.083       .  S
C925        C926   1.401       .  A
C925        H934   1.083       .  S
C926        C929   1.443       .  S
C926        C927   1.402       .  A
C927        C928   1.400       .  A
C927        H935   1.083       .  S
C928        H936   1.083       .  S
C929        C930   1.208       .  T
C931        C932   1.207       .  T
C937        C945   1.442       .  S
C937        C938   1.401       .  A
C937        C942   1.402       .  A
C938        C939   1.400       .  A
C938        H947   1.084       .  S
C939        C940   1.402       .  A
C939        H948   1.083       .  S
C940        C943   1.442       .  S
C940        C941   1.401       .  A
C941        C942   1.400       .  A
C941        H949   1.084       .  S
C942        H950   1.083       .  S
C943        C944   1.207       .  T
C945        C946   1.207   1_565  T
C951        C959   1.441       .  S
C951        C952   1.402       .  A
C951        C956   1.401       .  A
C952        C953   1.399       .  A
C952        H961   1.083       .  S
C953        C954   1.401       .  A
C953        H962   1.084       .  S
C954        C957   1.441       .  S
C954        C955   1.402       .  A
C955        C956   1.399       .  A
C955        H963   1.083       .  S
C956        H964   1.084       .  S
C957        C958   1.207       .  T
C959        C960   1.206       .  T
C965        C973   1.442       .  S
C965        C966   1.402       .  A
C965        C970   1.401       .  A
C966        C967   1.399       .  A
C966        H975   1.083       .  S
C967        C968   1.401       .  A
C967        H976   1.083       .  S
C968        C971   1.442       .  S
C968        C969   1.402       .  A
C969        C970   1.400       .  A
C969        H977   1.083       .  S
C970        H978   1.083       .  S
C971        C972   1.207       .  T
C973        C974   1.207       .  T
C979        C987   1.445       .  S
C979        C980   1.402       .  A
C979        C984   1.403       .  A
C980        C981   1.400       .  A
C980        H989   1.083       .  S
C981        C982   1.402       .  A
C981        H990   1.084       .  S
C982        C985   1.446       .  S
C982        C983   1.402       .  A
C983        C984   1.402       .  A
C983        H991   1.083       .  S
C984        H992   1.084       .  S
C985        C986   1.209       .  T
C987        C988   1.209       .  T
C993       C1001   1.441       .  S
C993        C994   1.401       .  A
C993        C998   1.402       .  A
C994        C995   1.400       .  A
C994       H1003   1.084       .  S
C995        C996   1.402       .  A
C995       H1004   1.083       .  S
C996        C999   1.441       .  S
C996        C997   1.401       .  A
C997        C998   1.399       .  A
C997       H1005   1.084       .  S
C998       H1006   1.083       .  S
C999       C1000   1.207       .  T
C1001      C1002   1.207       .  T
C1007      C1015   1.442       .  S
C1007      C1008   1.401       .  A
C1007      C1012   1.403       .  A
C1008      C1009   1.399       .  A
C1008      H1017   1.083       .  S
C1009      C1010   1.401       .  A
C1009      H1018   1.084       .  S
C1010      C1013   1.442       .  S
C1010      C1011   1.402       .  A
C1011      C1012   1.401       .  A
C1011      H1019   1.083       .  S
C1012      H1020   1.084       .  S
C1013      C1014   1.207       .  T
C1015      C1016   1.207       .  T
C1021      C1029   1.442       .  S
C1021      C1022   1.401       .  A
C1021      C1026   1.402       .  A
C1022      C1023   1.400       .  A
C1022      H1031   1.084       .  S
C1023      C1024   1.402       .  A
C1023      H1032   1.083       .  S
C1024      C1027   1.443       .  S
C1024      C1025   1.402       .  A
C1025      C1026   1.401       .  A
C1025      H1033   1.084       .  S
C1026      H1034   1.083       .  S
C1027      C1028   1.208       .  T
C1029      C1030   1.207       .  T
C1035      C1043   1.443       .  S
C1035      C1036   1.402       .  A
C1035      C1040   1.402       .  A
C1036      C1037   1.401       .  A
C1036      H1045   1.083   1_554  S
C1037      C1038   1.402       .  A
C1037      H1046   1.084       .  S
C1038      C1041   1.443       .  S
C1038      C1039   1.401       .  A
C1039      C1040   1.400       .  A
C1039      H1047   1.083       .  S
C1040      H1048   1.084       .  S
C1041      C1042   1.208       .  T
C1043      C1044   1.208   1_554  T
C1049      C1057   1.444       .  S
C1049      C1050   1.402       .  A
C1049      C1054   1.402       .  A
C1050      C1051   1.401       .  A
C1050      H1059   1.084       .  S
C1051      C1052   1.403       .  A
C1051      H1060   1.083       .  S
C1052      C1055   1.443       .  S
C1052      C1053   1.401       .  A
C1053      C1054   1.400       .  A
C1053      H1061   1.084       .  S
C1054      H1062   1.083       .  S
C1055      C1056   1.208   1_554  T
C1057      C1058   1.208       .  T
C1063      C1071   1.441       .  S
C1063      C1064   1.401       .  A
C1063      C1068   1.402       .  A
C1064      C1065   1.400       .  A
C1064      H1073   1.084       .  S
C1065      C1066   1.402       .  A
C1065      H1074   1.083       .  S
C1066      C1069   1.441       .  S
C1066      C1067   1.401       .  A
C1067      C1068   1.399       .  A
C1067      H1075   1.084       .  S
C1068      H1076   1.083       .  S
C1069      C1070   1.207       .  T
C1071      C1072   1.207       .  T
C1077      C1085   1.443       .  S
C1077      C1078   1.401       .  A
C1077      C1082   1.402       .  A
C1078      C1079   1.400       .  A
C1078      H1087   1.083       .  S
C1079      C1080   1.402       .  A
C1079      H1088   1.084       .  S
C1080      C1083   1.443       .  S
C1080      C1081   1.402       .  A
C1081      C1082   1.401       .  A
C1081      H1089   1.083       .  S
C1082      H1090   1.084       .  S
C1083      C1084   1.208       .  T
C1085      C1086   1.208       .  T
C1091      C1099   1.441       .  S
C1091      C1092   1.402       .  A
C1091      C1096   1.401       .  A
C1092      C1093   1.399       .  A
C1092      H1101   1.084       .  S
C1093      C1094   1.401       .  A
C1093      H1102   1.083       .  S
C1094      C1097   1.441       .  S
C1094      C1095   1.402       .  A
C1095      C1096   1.400       .  A
C1095      H1103   1.084       .  S
C1096      H1104   1.083       .  S
C1097      C1098   1.207       .  T
C1099      C1100   1.207       .  T
C1105      C1113   1.441       .  S
C1105      C1106   1.402       .  A
C1105      C1110   1.402       .  A
C1106      C1107   1.398       .  A
C1106      H1115   1.083       .  S
C1107      C1108   1.401       .  A
C1107      H1116   1.084       .  S
C1108      C1111   1.442       .  S
C1108      C1109   1.402       .  A
C1109      C1110   1.401       .  A
C1109      H1117   1.083       .  S
C1110      H1118   1.084       .  S
C1111      C1112   1.207       .  T
C1113      C1114   1.207       .  T
C1119      C1127   1.445       .  S
C1119      C1120   1.403       .  A
C1119      C1124   1.401       .  A
C1120      C1121   1.403       .  A
C1120      H1129   1.083       .  S
C1121      C1122   1.403       .  A
C1121      H1130   1.083       .  S
C1122      C1125   1.445       .  S
C1122      C1123   1.401       .  A
C1123      C1124   1.399       .  A
C1123      H1131   1.084       .  S
C1124      H1132   1.083       .  S
C1125      C1126   1.209       .  T
C1127      C1128   1.209       .  T
C1133      C1141   1.442       .  S
C1133      C1134   1.402       .  A
C1133      C1138   1.401       .  A
C1134      C1135   1.399       .  A
C1134      H1143   1.084       .  S
C1135      C1136   1.401       .  A
C1135      H1144   1.083       .  S
C1136      C1139   1.442       .  S
C1136      C1137   1.402       .  A
C1137      C1138   1.400       .  A
C1137      H1145   1.084       .  S
C1138      H1146   1.083       .  S
C1139      C1140   1.207       .  T
C1141      C1142   1.207       .  T
C1147      C1155   1.444       .  S
C1147      C1148   1.403       .  A
C1147      C1152   1.402       .  A
C1148      C1149   1.401       .  A
C1148      H1157   1.084       .  S
C1149      C1150   1.402       .  A
C1149      H1158   1.083       .  S
C1150      C1153   1.445       .  S
C1150      C1151   1.402       .  A
C1151      C1152   1.401       .  A
C1151      H1159   1.084       .  S
C1152      H1160   1.083       .  S
C1153      C1154   1.209       .  T
C1155      C1156   1.209       .  T
C1161      C1169   1.443       .  S
C1161      C1162   1.402       .  A
C1161      C1166   1.402       .  A
C1162      C1163   1.401       .  A
C1162      H1171   1.083       .  S
C1163      C1164   1.402       .  A
C1163      H1172   1.084       .  S
C1164      C1167   1.442       .  S
C1164      C1165   1.401       .  A
C1165      C1166   1.399       .  A
C1165      H1173   1.083       .  S
C1166      H1174   1.084       .  S
C1167      C1168   1.207       .  T
C1169      C1170   1.208       .  T
C1175      C1183   1.444       .  S
C1175      C1176   1.402       .  A
C1175      C1180   1.403       .  A
C1176      C1177   1.401       .  A
C1176      H1185   1.084       .  S
C1177      C1178   1.403       .  A
C1177      H1186   1.083       .  S
C1178      C1181   1.444       .  S
C1178      C1179   1.401       .  A
C1179      C1180   1.401       .  A
C1179      H1187   1.084       .  S
C1180      H1188   1.083       .  S
C1181      C1182   1.208       .  T
C1183      C1184   1.209       .  T
C1189      C1197   1.442       .  S
C1189      C1190   1.401       .  A
C1189      C1194   1.402       .  A
C1190      C1191   1.400       .  A
C1190      H1199   1.083       .  S
C1191      C1192   1.402       .  A
C1191      H1200   1.083       .  S
C1192      C1195   1.442       .  S
C1192      C1193   1.401       .  A
C1193      C1194   1.400       .  A
C1193      H1201   1.083       .  S
C1194      H1202   1.083       .  S
C1195      C1196   1.207       .  T
C1197      C1198   1.207       .  T
C1203      C1211   1.441       .  S
C1203      C1204   1.401       .  A
C1203      C1208   1.402       .  A
C1204      C1205   1.398       .  A
C1204      H1213   1.084       .  S
C1205      C1206   1.401       .  A
C1205      H1214   1.083       .  S
C1206      C1209   1.441       .  S
C1206      C1207   1.402       .  A
C1207      C1208   1.401       .  A
C1207      H1215   1.084       .  S
C1208      H1216   1.083       .  S
C1209      C1210   1.206       .  T
C1211      C1212   1.206       .  T
C1217      C1225   1.445       .  S
C1217      C1218   1.403       .  A
C1217      C1222   1.402       .  A
C1218      C1219   1.401       .  A
C1218      H1227   1.084       .  S
C1219      C1220   1.402       .  A
C1219      H1228   1.083       .  S
C1220      C1223   1.445       .  S
C1220      C1221   1.402       .  A
C1221      C1222   1.401       .  A
C1221      H1229   1.084       .  S
C1222      H1230   1.083       .  S
C1223      C1224   1.209       .  T
C1225      C1226   1.209       .  T
C1231      C1239   1.440       .  S
C1231      C1232   1.401       .  A
C1231      C1236   1.402       .  A
C1232      C1233   1.399       .  A
C1232      H1241   1.084       .  S
C1233      C1234   1.401       .  A
C1233      H1242   1.083       .  S
C1234      C1237   1.441       .  S
C1234      C1235   1.401       .  A
C1235      C1236   1.400       .  A
C1235      H1243   1.084   1_545  S
C1236      H1244   1.083       .  S
C1237      C1238   1.206   1_545  T
C1239      C1240   1.206       .  T
C1245      C1253   1.443       .  S
C1245      C1246   1.401       .  A
C1245      C1250   1.403       .  A
C1246      C1247   1.399       .  A
C1246      H1255   1.084       .  S
C1247      C1248   1.402       .  A
C1247      H1256   1.083       .  S
C1248      C1251   1.443       .  S
C1248      C1249   1.402       .  A
C1249      C1250   1.401       .  A
C1249      H1257   1.084       .  S
C1250      H1258   1.083       .  S
C1251      C1252   1.208       .  T
C1253      C1254   1.208       .  T
C1259      C1267   1.441       .  S
C1259      C1260   1.402       .  A
C1259      C1264   1.401       .  A
C1260      C1261   1.400       .  A
C1260      H1269   1.084       .  S
C1261      C1262   1.402       .  A
C1261      H1270   1.083       .  S
C1262      C1265   1.441       .  S
C1262      C1263   1.401       .  A
C1263      C1264   1.399       .  A
C1263      H1271   1.084       .  S
C1264      H1272   1.083       .  S
C1265      C1266   1.207       .  T
C1267      C1268   1.206       .  T
C1273      C1281   1.443       .  S
C1273      C1274   1.403       .  A
C1273      C1278   1.401       .  A
C1274      C1275   1.401       .  A
C1274      H1283   1.084       .  S
C1275      C1276   1.402       .  A
C1275      H1284   1.083       .  S
C1276      C1279   1.443       .  S
C1276      C1277   1.401       .  A
C1277      C1278   1.399       .  A
C1277      H1285   1.084       .  S
C1278      H1286   1.083       .  S
C1279      C1280   1.208       .  T
C1281      C1282   1.208       .  T
C1287      C1295   1.444       .  S
C1287      C1288   1.401       .  A
C1287      C1292   1.403       .  A
C1288      C1289   1.399       .  A
C1288      H1297   1.083       .  S
C1289      C1290   1.401       .  A
C1289      H1298   1.083       .  S
C1290      C1293   1.444       .  S
C1290      C1291   1.403       .  A
C1291      C1292   1.402       .  A
C1291      H1299   1.083       .  S
C1292      H1300   1.083       .  S
C1293      C1294   1.208       .  T
C1295      C1296   1.208       .  T
C1301      C1309   1.440       .  S
C1301      C1302   1.401       .  A
C1301      C1306   1.401       .  A
C1302      C1303   1.398       .  A
C1302      H1311   1.084       .  S
C1303      C1304   1.401       .  A
C1303      H1312   1.083       .  S
C1304      C1307   1.440       .  S
C1304      C1305   1.402       .  A
C1305      C1306   1.400       .  A
C1305      H1313   1.084       .  S
C1306      H1314   1.083       .  S
C1307      C1308   1.206       .  T
C1309      C1310   1.206       .  T
C1315      C1323   1.441       .  S
C1315      C1316   1.401       .  A
C1315      C1320   1.402       .  A
C1316      C1317   1.400       .  A
C1316      H1325   1.083       .  S
C1317      C1318   1.402       .  A
C1317      H1326   1.083       .  S
C1318      C1321   1.441       .  S
C1318      C1319   1.401       .  A
C1319      C1320   1.399       .  A
C1319      H1327   1.084       .  S
C1320      H1328   1.083       .  S
C1321      C1322   1.207   1_455  T
C1323      C1324   1.206       .  T
C1329      C1337   1.444       .  S
C1329      C1330   1.402       .  A
C1329      C1334   1.402       .  A
C1330      C1331   1.400       .  A
C1330      H1339   1.083       .  S
C1331      C1332   1.402       .  A
C1331      H1340   1.083       .  S
C1332      C1335   1.444       .  S
C1332      C1333   1.402       .  A
C1333      C1334   1.401       .  A
C1333      H1341   1.083       .  S
C1334      H1342   1.083       .  S
C1335      C1336   1.209       .  T
C1337      C1338   1.208       .  T
C1343      C1351   1.443       .  S
C1343      C1344   1.402       .  A
C1343      C1348   1.402       .  A
C1344      C1345   1.400       .  A
C1344      H1353   1.083       .  S
C1345      C1346   1.402       .  A
C1345      H1354   1.083       .  S
C1346      C1349   1.443       .  S
C1346      C1347   1.402       .  A
C1347      C1348   1.401       .  A
C1347      H1355   1.083       .  S
C1348      H1356   1.083       .  S
C1349      C1350   1.208       .  T
C1351      C1352   1.208       .  T
C1357      C1365   1.444       .  S
C1357      C1358   1.402       .  A
C1357      C1362   1.402       .  A
C1358      C1359   1.401       .  A
C1358      H1367   1.083       .  S
C1359      C1360   1.402       .  A
C1359      H1368   1.083       .  S
C1360      C1363   1.444       .  S
C1360      C1361   1.402       .  A
C1361      C1362   1.400       .  A
C1361      H1369   1.083       .  S
C1362      H1370   1.083       .  S
C1363      C1364   1.209       .  T
C1365      C1366   1.208       .  T
C1371      C1379   1.444       .  S
C1371      C1372   1.402       .  A
C1371      C1376   1.402       .  A
C1372      C1373   1.401       .  A
C1372      H1381   1.083       .  S
C1373      C1374   1.402       .  A
C1373      H1382   1.083       .  S
C1374      C1377   1.444       .  S
C1374      C1375   1.402       .  A
C1375      C1376   1.400       .  A
C1375      H1383   1.083       .  S
C1376      H1384   1.083       .  S
C1377      C1378   1.208       .  T
C1379      C1380   1.208       .  T
C1385      C1393   1.443       .  S
C1385      C1386   1.402       .  A
C1385      C1390   1.402       .  A
C1386      C1387   1.401       .  A
C1386      H1395   1.084       .  S
C1387      C1388   1.402       .  A
C1387      H1396   1.083       .  S
C1388      C1391   1.444       .  S
C1388      C1389   1.402       .  A
C1389      C1390   1.400       .  A
C1389      H1397   1.084       .  S
C1390      H1398   1.083       .  S
C1391      C1392   1.208       .  T
C1393      C1394   1.208       .  T
C1399      C1407   1.443       .  S
C1399      C1400   1.402       .  A
C1399      C1404   1.402       .  A
C1400      C1401   1.401       .  A
C1400      H1409   1.084       .  S
C1401      C1402   1.402       .  A
C1401      H1410   1.083       .  S
C1402      C1405   1.443       .  S
C1402      C1403   1.402       .  A
C1403      C1404   1.400       .  A
C1403      H1411   1.084       .  S
C1404      H1412   1.083       .  S
C1405      C1406   1.208       .  T
C1407      C1408   1.208       .  T
C1413      C1421   1.443       .  S
C1413      C1414   1.402       .  A
C1413      C1418   1.402       .  A
C1414      C1415   1.400       .  A
C1414      H1423   1.083       .  S
C1415      C1416   1.402       .  A
C1415      H1424   1.083       .  S
C1416      C1419   1.444       .  S
C1416      C1417   1.402       .  A
C1417      C1418   1.401       .  A
C1417      H1425   1.083       .  S
C1418      H1426   1.083       .  S
C1419      C1420   1.209       .  T
C1421      C1422   1.208       .  T
C1427      C1435   1.444       .  S
C1427      C1428   1.402   1_554  A
C1427      C1432   1.402       .  A
C1428      C1429   1.400       .  A
C1428      H1437   1.083       .  S
C1429      C1430   1.402   1_556  A
C1429      H1438   1.083       .  S
C1430      C1433   1.444       .  S
C1430      C1431   1.402       .  A
C1431      C1432   1.401       .  A
C1431      H1439   1.083       .  S
C1432      H1440   1.083       .  S
C1433      C1434   1.208       .  T
C1435      C1436   1.208       .  T
C1441      C1449   1.442       .  S
C1441      C1442   1.401       .  A
C1441      C1446   1.402   1_565  A
C1442      C1443   1.399       .  A
C1442      H1451   1.083       .  S
C1443      C1444   1.401       .  A
C1443      H1452   1.083       .  S
C1444      C1447   1.442       .  S
C1444      C1445   1.402   1_565  A
C1445      C1446   1.400       .  A
C1445      H1453   1.083       .  S
C1446      H1454   1.083       .  S
C1447      C1448   1.207       .  T
C1449      C1450   1.207       .  T
C1455      C1463   1.444       .  S
C1455      C1456   1.402   1_455  A
C1455      C1460   1.402       .  A
C1456      C1457   1.401       .  A
C1456      H1465   1.083       .  S
C1457      C1458   1.402   1_655  A
C1457      H1466   1.083       .  S
C1458      C1461   1.444       .  S
C1458      C1459   1.402       .  A
C1459      C1460   1.401       .  A
C1459      H1467   1.083       .  S
C1460      H1468   1.083       .  S
C1461      C1462   1.209       .  T
C1463      C1464   1.209       .  T
C1469      C1477   1.446       .  S
C1469      C1470   1.402       .  A
C1469      C1474   1.402       .  A
C1470      C1471   1.401       .  A
C1470      H1479   1.084       .  S
C1471      C1472   1.402       .  A
C1471      H1480   1.083       .  S
C1472      C1475   1.446       .  S
C1472      C1473   1.402       .  A
C1473      C1474   1.401       .  A
C1473      H1481   1.084       .  S
C1474      H1482   1.083       .  S
C1475      C1476   1.209       .  T
C1477      C1478   1.210       .  T
C1483      C1491   1.442       .  S
C1483      C1484   1.402       .  A
C1483      C1488   1.402       .  A
C1484      C1485   1.400       .  A
C1484      H1493   1.084       .  S
C1485      C1486   1.402       .  A
C1485      H1494   1.083       .  S
C1486      C1489   1.442       .  S
C1486      C1487   1.402       .  A
C1487      C1488   1.400       .  A
C1487      H1495   1.084       .  S
C1488      H1496   1.083       .  S
C1489      C1490   1.207       .  T
C1491      C1492   1.207       .  T
C1497      C1505   1.443       .  S
C1497      C1498   1.402       .  A
C1497      C1502   1.402   1_455  A
C1498      C1499   1.400       .  A
C1498      H1507   1.084       .  S
C1499      C1500   1.402       .  A
C1499      H1508   1.083       .  S
C1500      C1503   1.443       .  S
C1500      C1501   1.402   1_455  A
C1501      C1502   1.400       .  A
C1501      H1509   1.084       .  S
C1502      H1510   1.083       .  S
C1503      C1504   1.208       .  T
C1505      C1506   1.208       .  T
C1511      C1519   1.440       .  S
C1511      C1512   1.402       .  A
C1511      C1516   1.401       .  A
C1512      C1513   1.400       .  A
C1512      H1521   1.083       .  S
C1513      C1514   1.402       .  A
C1513      H1522   1.083       .  S
C1514      C1517   1.440       .  S
C1514      C1515   1.401       .  A
C1515      C1516   1.398       .  A
C1515      H1523   1.083       .  S
C1516      H1524   1.084       .  S
C1517      C1518   1.206       .  T
C1519      C1520   1.206   1_565  T
C1525      C1533   1.441       .  S
C1525      C1526   1.401       .  A
C1525      C1530   1.402       .  A
C1526      C1527   1.400       .  A
C1526      H1535   1.083       .  S
C1527      C1528   1.402       .  A
C1527      H1536   1.084       .  S
C1528      C1531   1.441       .  S
C1528      C1529   1.401       .  A
C1529      C1530   1.399       .  A
C1529      H1537   1.083       .  S
C1530      H1538   1.084       .  S
C1531      C1532   1.207       .  T
C1533      C1534   1.207       .  T
C1539      C1547   1.440       .  S
C1539      C1540   1.401       .  A
C1539      C1544   1.402       .  A
C1540      C1541   1.400       .  A
C1540      H1549   1.084       .  S
C1541      C1542   1.402       .  A
C1541      H1550   1.083       .  S
C1542      C1545   1.441       .  S
C1542      C1543   1.401       .  A
C1543      C1544   1.399       .  A
C1543      H1551   1.083       .  S
C1544      H1552   1.083       .  S
C1545      C1546   1.206       .  T
C1547      C1548   1.206       .  T
C1553      C1561   1.443       .  S
C1553      C1554   1.402       .  A
C1553      C1558   1.402       .  A
C1554      C1555   1.401       .  A
C1554      H1563   1.083       .  S
C1555      C1556   1.402       .  A
C1555      H1564   1.083       .  S
C1556      C1559   1.443       .  S
C1556      C1557   1.401       .  A
C1557      C1558   1.400       .  A
C1557      H1565   1.083       .  S
C1558      H1566   1.084       .  S
C1559      C1560   1.208       .  T
C1561      C1562   1.208       .  T
C1567      C1575   1.440       .  S
C1567      C1568   1.402       .  A
C1567      C1572   1.401       .  A
C1568      C1569   1.401       .  A
C1568      H1577   1.083       .  S
C1569      C1570   1.402       .  A
C1569      H1578   1.083       .  S
C1570      C1573   1.440       .  S
C1570      C1571   1.401       .  A
C1571      C1572   1.397       .  A
C1571      H1579   1.084       .  S
C1572      H1580   1.083       .  S
C1573      C1574   1.206       .  T
C1575      C1576   1.206       .  T
C1581      C1589   1.441       .  S
C1581      C1582   1.402       .  A
C1581      C1586   1.401       .  A
C1582      C1583   1.400       .  A
C1582      H1591   1.083       .  S
C1583      C1584   1.401       .  A
C1583      H1592   1.084       .  S
C1584      C1587   1.441       .  S
C1584      C1585   1.402       .  A
C1585      C1586   1.399       .  A
C1585      H1593   1.083       .  S
C1586      H1594   1.084       .  S
C1587      C1588   1.207       .  T
C1589      C1590   1.207   1_565  T
C1595      C1603   1.441       .  S
C1595      C1596   1.403       .  A
C1595      C1600   1.401       .  A
C1596      C1597   1.401       .  A
C1596      H1605   1.084       .  S
C1597      C1598   1.402       .  A
C1597      H1606   1.083       .  S
C1598      C1601   1.442       .  S
C1598      C1599   1.401       .  A
C1599      C1600   1.398       .  A
C1599      H1607   1.084       .  S
C1600      H1608   1.083       .  S
C1601      C1602   1.207       .  T
C1603      C1604   1.207       .  T
C1609      C1617   1.441       .  S
C1609      C1610   1.401       .  A
C1609      C1614   1.402       .  A
C1610      C1611   1.399       .  A
C1610      H1619   1.084       .  S
C1611      C1612   1.402       .  A
C1611      H1620   1.083       .  S
C1612      C1615   1.440       .  S
C1612      C1613   1.401       .  A
C1613      C1614   1.399       .  A
C1613      H1621   1.084       .  S
C1614      H1622   1.083       .  S
C1615      C1616   1.206       .  T
C1617      C1618   1.206       .  T
C1623      C1631   1.443       .  S
C1623      C1624   1.403       .  A
C1623      C1628   1.401       .  A
C1624      C1625   1.402       .  A
C1624      H1633   1.083       .  S
C1625      C1626   1.403       .  A
C1625      H1634   1.083       .  S
C1626      C1629   1.443       .  S
C1626      C1627   1.401       .  A
C1627      C1628   1.398       .  A
C1627      H1635   1.084       .  S
C1628      H1636   1.083       .  S
C1629      C1630   1.208       .  T
C1631      C1632   1.208       .  T
C1637      C1645   1.445       .  S
C1637      C1638   1.402       .  A
C1637      C1642   1.402   1_455  A
C1638      C1639   1.401       .  A
C1638      H1647   1.083       .  S
C1639      C1640   1.402       .  A
C1639      H1648   1.084       .  S
C1640      C1643   1.446       .  S
C1640      C1641   1.403   1_455  A
C1641      C1642   1.402       .  A
C1641      H1649   1.083       .  S
C1642      H1650   1.084       .  S
C1643      C1644   1.209       .  T
C1645      C1646   1.209       .  T
C1651      C1659   1.443       .  S
C1651      C1652   1.403       .  A
C1651      C1656   1.401       .  A
C1652      C1653   1.403       .  A
C1652      H1661   1.083       .  S
C1653      C1654   1.403       .  A
C1653      H1662   1.083       .  S
C1654      C1657   1.443       .  S
C1654      C1655   1.401       .  A
C1655      C1656   1.398       .  A
C1655      H1663   1.083       .  S
C1656      H1664   1.084       .  S
C1657      C1658   1.208       .  T
C1659      C1660   1.208       .  T
C1665      C1673   1.443       .  S
C1665      C1666   1.402   1_455  A
C1665      C1670   1.402       .  A
C1666      C1667   1.400       .  A
C1666      H1675   1.083       .  S
C1667      C1668   1.402   1_655  A
C1667      H1676   1.083       .  S
C1668      C1671   1.442       .  S
C1668      C1669   1.402       .  A
C1669      C1670   1.400       .  A
C1669      H1677   1.083       .  S
C1670      H1678   1.083       .  S
C1671      C1672   1.207       .  T
C1673      C1674   1.208       .  T
C1679      C1687   1.443       .  S
C1679      C1680   1.402       .  A
C1679      C1684   1.402       .  A
C1680      C1681   1.400       .  A
C1680      H1689   1.083       .  S
C1681      C1682   1.402       .  A
C1681      H1690   1.084       .  S
C1682      C1685   1.443       .  S
C1682      C1683   1.401       .  A
C1683      C1684   1.400       .  A
C1683      H1691   1.083       .  S
C1684      H1692   1.084       .  S
C1685      C1686   1.208       .  T
C1687      C1688   1.207   1_554  T
C1693      C1701   1.444       .  S
C1693      C1694   1.402   1_565  A
C1693      C1698   1.402       .  A
C1694      C1695   1.401       .  A
C1694      H1703   1.083       .  S
C1695      C1696   1.402   1_545  A
C1695      H1704   1.083       .  S
C1696      C1699   1.444   1_565  S
C1696      C1697   1.402       .  A
C1697      C1698   1.400       .  A
C1697      H1705   1.083       .  S
C1698      H1706   1.083       .  S
C1699      C1700   1.209       .  T
C1701      C1702   1.209       .  T
C1707      C1715   1.442       .  S
C1707      C1708   1.402       .  A
C1707      C1712   1.401       .  A
C1708      C1709   1.401       .  A
C1708      H1717   1.083       .  S
C1709      C1710   1.402       .  A
C1709      H1718   1.084       .  S
C1710      C1713   1.442       .  S
C1710      C1711   1.402       .  A
C1711      C1712   1.399       .  A
C1711      H1719   1.083       .  S
C1712      H1720   1.084       .  S
C1713      C1714   1.207       .  T
C1715      C1716   1.207       .  T
C1721      C1729   1.443       .  S
C1721      C1722   1.402       .  A
C1721      C1726   1.402       .  A
C1722      C1723   1.400       .  A
C1722      H1731   1.083       .  S
C1723      C1724   1.402       .  A
C1723      H1732   1.084       .  S
C1724      C1727   1.443       .  S
C1724      C1725   1.402       .  A
C1725      C1726   1.400       .  A
C1725      H1733   1.083       .  S
C1726      H1734   1.084       .  S
C1727      C1728   1.208       .  T
C1729      C1730   1.208       .  T
C1735      C1743   1.444       .  S
C1735      C1736   1.402   1_554  A
C1735      C1740   1.402       .  A
C1736      C1737   1.401       .  A
C1736      H1745   1.083       .  S
C1737      C1738   1.403   1_556  A
C1737      H1746   1.083       .  S
C1738      C1741   1.444       .  S
C1738      C1739   1.402       .  A
C1739      C1740   1.400       .  A
C1739      H1747   1.083       .  S
C1740      H1748   1.083       .  S
C1741      C1742   1.208       .  T
C1743      C1744   1.208       .  T
C1749      C1757   1.443       .  S
C1749      C1750   1.402       .  A
C1749      C1754   1.402       .  A
C1750      C1751   1.400       .  A
C1750      H1759   1.080       .  S
C1751      C1752   1.401       .  A
C1751      H1760   1.087       .  S
C1752      C1755   1.443       .  S
C1752      C1753   1.402       .  A
C1753      C1754   1.401       .  A
C1753      H1761   1.080   1_545  S
C1754      H1762   1.086       .  S
C1755      C1756   1.208   1_545  T
C1757      C1758   1.208       .  T
C1763      C1771   1.444       .  S
C1763      C1764   1.402       .  A
C1763      C1768   1.402   1_554  A
C1764      C1765   1.400       .  A
C1764      H1773   1.084       .  S
C1765      C1766   1.402       .  A
C1765      H1774   1.083       .  S
C1766      C1769   1.444       .  S
C1766      C1767   1.402   1_554  A
C1767      C1768   1.401       .  A
C1767      H1775   1.084       .  S
C1768      H1776   1.083       .  S
C1769      C1770   1.208       .  T
C1771      C1772   1.208       .  T
C1777      C1785   1.441       .  S
C1777      C1778   1.402       .  A
C1777      C1782   1.401       .  A
C1778      C1779   1.401       .  A
C1778      H1787   1.083       .  S
C1779      C1780   1.403       .  A
C1779      H1788   1.084       .  S
C1780      C1783   1.441       .  S
C1780      C1781   1.401       .  A
C1781      C1782   1.398       .  A
C1781      H1789   1.083       .  S
C1782      H1790   1.084       .  S
C1783      C1784   1.207       .  T
C1785      C1786   1.207       .  T
C1791      C1799   1.446       .  S
C1791      C1792   1.402   1_565  A
C1791      C1796   1.403       .  A
C1792      C1793   1.400       .  A
C1792      H1801   1.083       .  S
C1793      C1794   1.402   1_545  A
C1793      H1802   1.083       .  S
C1794      C1797   1.446       .  S
C1794      C1795   1.403       .  A
C1795      C1796   1.402       .  A
C1795      H1803   1.084       .  S
C1796      H1804   1.083       .  S
C1797      C1798   1.210       .  T
C1799      C1800   1.210       .  T
C1805      C1813   1.443       .  S
C1805      C1806   1.402       .  A
C1805      C1810   1.402       .  A
C1806      C1807   1.400       .  A
C1806      H1815   1.083       .  S
C1807      C1808   1.402       .  A
C1807      H1816   1.084       .  S
C1808      C1811   1.442       .  S
C1808      C1809   1.402       .  A
C1809      C1810   1.400       .  A
C1809      H1817   1.083       .  S
C1810      H1818   1.084       .  S
C1811      C1812   1.207   1_455  T
C1813      C1814   1.208       .  T
C1819      C1827   1.444       .  S
C1819      C1820   1.402       .  A
C1819      C1824   1.402       .  A
C1820      C1821   1.399       .  A
C1820      H1829   1.084       .  S
C1821      C1822   1.402       .  A
C1821      H1830   1.083       .  S
C1822      C1825   1.445       .  S
C1822      C1823   1.403       .  A
C1823      C1824   1.402       .  A
C1823      H1831   1.084       .  S
C1824      H1832   1.082       .  S
C1825      C1826   1.209   1_455  T
C1827      C1828   1.209       .  T
C1833      C1841   1.443       .  S
C1833      C1834   1.402   1_565  A
C1833      C1838   1.402       .  A
C1834      C1835   1.401       .  A
C1834      H1843   1.083       .  S
C1835      C1836   1.402       .  A
C1835      H1844   1.083       .  S
C1836      C1839   1.443       .  S
C1836      C1837   1.402   1_545  A
C1837      C1838   1.400       .  A
C1837      H1845   1.083       .  S
C1838      H1846   1.083       .  S
C1839      C1840   1.208       .  T
C1841      C1842   1.208       .  T
C1847      C1855   1.444       .  S
C1847      C1848   1.402       .  A
C1847      C1852   1.402       .  A
C1848      C1849   1.401       .  A
C1848      H1857   1.084       .  S
C1849      C1850   1.402       .  A
C1849      H1858   1.083       .  S
C1850      C1853   1.444       .  S
C1850      C1851   1.402       .  A
C1851      C1852   1.400       .  A
C1851      H1859   1.084       .  S
C1852      H1860   1.083       .  S
C1853      C1854   1.208       .  T
C1855      C1856   1.209       .  T
C1861      C1869   1.447       .  S
C1861      C1862   1.403       .  A
C1861      C1866   1.402       .  A
C1862      C1863   1.402       .  A
C1862      H1871   1.083       .  S
C1863      C1864   1.403       .  A
C1863      H1872   1.083       .  S
C1864      C1867   1.447       .  S
C1864      C1865   1.402       .  A
C1865      C1866   1.401       .  A
C1865      H1873   1.083       .  S
C1866      H1874   1.083       .  S
C1867      C1868   1.210       .  T
C1869      C1870   1.210       .  T
C1875      C1883   1.443       .  S
C1875      C1876   1.402       .  A
C1875      C1880   1.402       .  A
C1876      C1877   1.401       .  A
C1876      H1885   1.083       .  S
C1877      C1878   1.402       .  A
C1877      H1886   1.084       .  S
C1878      C1881   1.443       .  S
C1878      C1879   1.402       .  A
C1879      C1880   1.400       .  A
C1879      H1887   1.083       .  S
C1880      H1888   1.084       .  S
C1881      C1882   1.208       .  T
C1883      C1884   1.208       .  T
C1889      C1897   1.441       .  S
C1889      C1890   1.401       .  A
C1889      C1894   1.402       .  A
C1890      C1891   1.400       .  A
C1890      H1899   1.084   1_545  S
C1891      C1892   1.402       .  A
C1891      H1900   1.083       .  S
C1892      C1895   1.440       .  S
C1892      C1893   1.401       .  A
C1893      C1894   1.399       .  A
C1893      H1901   1.084       .  S
C1894      H1902   1.083       .  S
C1895      C1896   1.206       .  T
C1897      C1898   1.206   1_545  T
C1903      C1911   1.442       .  S
C1903      C1904   1.403       .  A
C1903      C1908   1.401       .  A
C1904      C1905   1.402       .  A
C1904      H1913   1.083       .  S
C1905      C1906   1.402       .  A
C1905      H1914   1.083       .  S
C1906      C1909   1.442       .  S
C1906      C1907   1.401       .  A
C1907      C1908   1.398       .  A
C1907      H1915   1.084       .  S
C1908      H1916   1.083       .  S
C1909      C1910   1.207       .  T
C1911      C1912   1.207       .  T
C1917      C1925   1.442       .  S
C1917      C1918   1.402       .  A
C1917      C1922   1.401       .  A
C1918      C1919   1.400       .  A
C1918      H1927   1.083       .  S
C1919      C1920   1.401       .  A
C1919      H1928   1.084       .  S
C1920      C1923   1.442       .  S
C1920      C1921   1.402       .  A
C1921      C1922   1.400       .  A
C1921      H1929   1.083       .  S
C1922      H1930   1.084       .  S
C1923      C1924   1.207       .  T
C1925      C1926   1.207   1_556  T
C1931      C1939   1.441       .  S
C1931      C1932   1.402       .  A
C1931      C1936   1.402       .  A
C1932      C1933   1.400       .  A
C1932      H1941   1.084       .  S
C1933      C1934   1.402       .  A
C1933      H1942   1.083       .  S
C1934      C1937   1.442       .  S
C1934      C1935   1.401       .  A
C1935      C1936   1.399       .  A
C1935      H1943   1.084       .  S
C1936      H1944   1.083       .  S
C1937      C1938   1.207       .  T
C1939      C1940   1.207       .  T
C1945      C1953   1.440       .  S
C1945      C1946   1.401       .  A
C1945      C1950   1.402       .  A
C1946      C1947   1.397       .  A
C1946      H1955   1.084       .  S
C1947      C1948   1.401       .  A
C1947      H1956   1.083       .  S
C1948      C1951   1.441       .  S
C1948      C1949   1.402       .  A
C1949      C1950   1.401       .  A
C1949      H1957   1.084       .  S
C1950      H1958   1.083       .  S
C1951      C1952   1.207       .  T
C1953      C1954   1.206       .  T
C1959      C1967   1.444       .  S
C1959      C1960   1.401       .  A
C1959      C1964   1.403       .  A
C1960      C1961   1.399       .  A
C1960      H1969   1.083       .  S
C1961      C1962   1.401       .  A
C1961      H1970   1.084       .  S
C1962      C1965   1.444       .  S
C1962      C1963   1.403       .  A
C1963      C1964   1.402       .  A
C1963      H1971   1.083       .  S
C1964      H1972   1.084       .  S
C1965      C1966   1.208       .  T
C1967      C1968   1.208       .  T
C1973      C1981   1.443       .  S
C1973      C1974   1.403       .  A
C1973      C1978   1.401       .  A
C1974      C1975   1.402       .  A
C1974      H1983   1.083       .  S
C1975      C1976   1.403       .  A
C1975      H1984   1.084       .  S
C1976      C1979   1.443       .  S
C1976      C1977   1.401       .  A
C1977      C1978   1.398       .  A
C1977      H1985   1.083       .  S
C1978      H1986   1.084       .  S
C1979      C1980   1.208       .  T
C1981      C1982   1.208       .  T
C1987      C1995   1.442       .  S
C1987      C1988   1.402       .  A
C1987      C1992   1.402       .  A
C1988      C1989   1.400       .  A
C1988      H1997   1.084       .  S
C1989      C1990   1.401       .  A
C1989      H1998   1.083       .  S
C1990      C1993   1.442       .  S
C1990      C1991   1.402       .  A
C1991      C1992   1.400       .  A
C1991      H1999   1.083       .  S
C1992      H2000   1.083   1_556  S
C1993      C1994   1.207       .  T
C1995      C1996   1.207   1_556  T
C2001      C2009   1.442       .  S
C2001      C2002   1.402       .  A
C2001      C2006   1.402       .  A
C2002      C2003   1.399       .  A
C2002      H2011   1.083       .  S
C2003      C2004   1.401       .  A
C2003      H2012   1.084       .  S
C2004      C2007   1.442       .  S
C2004      C2005   1.402       .  A
C2005      C2006   1.401       .  A
C2005      H2013   1.083       .  S
C2006      H2014   1.083       .  S
C2007      C2008   1.207       .  T
C2009      C2010   1.207       .  T
C2015      C2023   1.443       .  S
C2015      C2016   1.402       .  A
C2015      C2020   1.402       .  A
C2016      C2017   1.401       .  A
C2016      H2025   1.083       .  S
C2017      C2018   1.402       .  A
C2017      H2026   1.084       .  S
C2018      C2021   1.442       .  S
C2018      C2019   1.401       .  A
C2019      C2020   1.399       .  A
C2019      H2027   1.083       .  S
C2020      H2028   1.084       .  S
C2021      C2022   1.207       .  T
C2023      C2024   1.208       .  T
C2029      C2037   1.445       .  S
C2029      C2030   1.402       .  A
C2029      C2034   1.403       .  A
C2030      C2031   1.399       .  A
C2030      H2039   1.083       .  S
C2031      C2032   1.402       .  A
C2031      H2040   1.084       .  S
C2032      C2035   1.445       .  S
C2032      C2033   1.403       .  A
C2033      C2034   1.402       .  A
C2033      H2041   1.083       .  S
C2034      H2042   1.084       .  S
C2035      C2036   1.209       .  T
C2037      C2038   1.209       .  T
C2043      C2051   1.448       .  S
C2043      C2044   1.403       .  A
C2043      C2048   1.403       .  A
C2044      C2045   1.402       .  A
C2044      H2053   1.083       .  S
C2045      C2046   1.402       .  A
C2045      H2054   1.083       .  S
C2046      C2049   1.447       .  S
C2046      C2047   1.403       .  A
C2047      C2048   1.403       .  A
C2047      H2055   1.083       .  S
C2048      H2056   1.083       .  S
C2049      C2050   1.210       .  T
C2051      C2052   1.211       .  T
C2057      C2065   1.445       .  S
C2057      C2058   1.402       .  A
C2057      C2062   1.402   1_554  A
C2058      C2059   1.401       .  A
C2058      H2067   1.083       .  S
C2059      C2060   1.402       .  A
C2059      H2068   1.084       .  S
C2060      C2063   1.445       .  S
C2060      C2061   1.402   1_554  A
C2061      C2062   1.401       .  A
C2061      H2069   1.083       .  S
C2062      H2070   1.084       .  S
C2063      C2064   1.209       .  T
C2065      C2066   1.209       .  T
C2071      C2079   1.444       .  S
C2071      C2072   1.402       .  A
C2071      C2076   1.402       .  A
C2072      C2073   1.401       .  A
C2072      H2081   1.083       .  S
C2073      C2074   1.402       .  A
C2073      H2082   1.084       .  S
C2074      C2077   1.444       .  S
C2074      C2075   1.402       .  A
C2075      C2076   1.400       .  A
C2075      H2083   1.083       .  S
C2076      H2084   1.084       .  S
C2077      C2078   1.208       .  T
C2079      C2080   1.208       .  T
C2085      C2093   1.442       .  S
C2085      C2086   1.402       .  A
C2085      C2090   1.402       .  A
C2086      C2087   1.399       .  A
C2086      H2095   1.084       .  S
C2087      C2088   1.401       .  A
C2087      H2096   1.083       .  S
C2088      C2091   1.442       .  S
C2088      C2089   1.402       .  A
C2089      C2090   1.400       .  A
C2089      H2097   1.084       .  S
C2090      H2098   1.083       .  S
C2091      C2092   1.207       .  T
C2093      C2094   1.207   1_554  T
C2099      C2107   1.444       .  S
C2099      C2100   1.403       .  A
C2099      C2104   1.401       .  A
C2100      C2101   1.402       .  A
C2100      H2109   1.083       .  S
C2101      C2102   1.402       .  A
C2101      H2110   1.083       .  S
C2102      C2105   1.444       .  S
C2102      C2103   1.402       .  A
C2103      C2104   1.400       .  A
C2103      H2111   1.083       .  S
C2104      H2112   1.083       .  S
C2105      C2106   1.209       .  T
C2107      C2108   1.208       .  T
C2113      C2121   1.443       .  S
C2113      C2114   1.402       .  A
C2113      C2118   1.402       .  A
C2114      C2115   1.399       .  A
C2114      H2123   1.084       .  S
C2115      C2116   1.401       .  A
C2115      H2124   1.083       .  S
C2116      C2119   1.443       .  S
C2116      C2117   1.402       .  A
C2117      C2118   1.401       .  A
C2117      H2125   1.084       .  S
C2118      H2126   1.083   1_655  S
C2119      C2120   1.208       .  T
C2121      C2122   1.208   1_655  T
C2127      C2135   1.442       .  S
C2127      C2128   1.402       .  A
C2127      C2132   1.401       .  A
C2128      C2129   1.400       .  A
C2128      H2137   1.084       .  S
C2129      C2130   1.401       .  A
C2129      H2138   1.083       .  S
C2130      C2133   1.442       .  S
C2130      C2131   1.402       .  A
C2131      C2132   1.399       .  A
C2131      H2139   1.084       .  S
C2132      H2140   1.083       .  S
C2133      C2134   1.207       .  T
C2135      C2136   1.207       .  T
C2141      C2149   1.444       .  S
C2141      C2142   1.402       .  A
C2141      C2146   1.402       .  A
C2142      C2143   1.401       .  A
C2142      H2151   1.084       .  S
C2143      C2144   1.403       .  A
C2143      H2152   1.083       .  S
C2144      C2147   1.444       .  S
C2144      C2145   1.402       .  A
C2145      C2146   1.401       .  A
C2145      H2153   1.084       .  S
C2146      H2154   1.083       .  S
C2147      C2148   1.209       .  T
C2149      C2150   1.208       .  T
C2155      C2163   1.442       .  S
C2155      C2156   1.401       .  A
C2155      C2160   1.402       .  A
C2156      C2157   1.400       .  A
C2156      H2165   1.084       .  S
C2157      C2158   1.402       .  A
C2157      H2166   1.083       .  S
C2158      C2161   1.442       .  S
C2158      C2159   1.401       .  A
C2159      C2160   1.400       .  A
C2159      H2167   1.084       .  S
C2160      H2168   1.083       .  S
C2161      C2162   1.207       .  T
C2163      C2164   1.207       .  T
C2169      C2177   1.442       .  S
C2169      C2170   1.401       .  A
C2169      C2174   1.402       .  A
C2170      C2171   1.399       .  A
C2170      H2179   1.083       .  S
C2171      C2172   1.402       .  A
C2171      H2180   1.084       .  S
C2172      C2175   1.442       .  S
C2172      C2173   1.402       .  A
C2173      C2174   1.401       .  A
C2173      H2181   1.083       .  S
C2174      H2182   1.084       .  S
C2175      C2176   1.207       .  T
C2177      C2178   1.207       .  T
C2183      C2191   1.442       .  S
C2183      C2184   1.401       .  A
C2183      C2188   1.402       .  A
C2184      C2185   1.400       .  A
C2184      H2193   1.083       .  S
C2185      C2186   1.402       .  A
C2185      H2194   1.084       .  S
C2186      C2189   1.442       .  S
C2186      C2187   1.402       .  A
C2187      C2188   1.400       .  A
C2187      H2195   1.083       .  S
C2188      H2196   1.083       .  S
C2189      C2190   1.207       .  T
C2191      C2192   1.207       .  T
C2197      C2205   1.444       .  S
C2197      C2198   1.403       .  A
C2197      C2202   1.402       .  A
C2198      C2199   1.401       .  A
C2198      H2207   1.083       .  S
C2199      C2200   1.402       .  A
C2199      H2208   1.084       .  S
C2200      C2203   1.444       .  S
C2200      C2201   1.402       .  A
C2201      C2202   1.401       .  A
C2201      H2209   1.083       .  S
C2202      H2210   1.084       .  S
C2203      C2204   1.209       .  T
C2205      C2206   1.209   1_655  T
C2211      C2219   1.443       .  S
C2211      C2212   1.402       .  A
C2211      C2216   1.401       .  A
C2212      C2213   1.400       .  A
C2212      H2221   1.083       .  S
C2213      C2214   1.402       .  A
C2213      H2222   1.084       .  S
C2214      C2217   1.443       .  S
C2214      C2215   1.402       .  A
C2215      C2216   1.400       .  A
C2215      H2223   1.083       .  S
C2216      H2224   1.084       .  S
C2217      C2218   1.208       .  T
C2219      C2220   1.208       .  T
C2225      C2233   1.442       .  S
C2225      C2226   1.402       .  A
C2225      C2230   1.401       .  A
C2226      C2227   1.400       .  A
C2226      H2235   1.084       .  S
C2227      C2228   1.402       .  A
C2227      H2236   1.083       .  S
C2228      C2231   1.443       .  S
C2228      C2229   1.402       .  A
C2229      C2230   1.400       .  A
C2229      H2237   1.084       .  S
C2230      H2238   1.083       .  S
C2231      C2232   1.208       .  T
C2233      C2234   1.207       .  T
C2239      C2247   1.443       .  S
C2239      C2240   1.401       .  A
C2239      C2244   1.403       .  A
C2240      C2241   1.400       .  A
C2240      H2249   1.084       .  S
C2241      C2242   1.402       .  A
C2241      H2250   1.083       .  S
C2242      C2245   1.443       .  S
C2242      C2243   1.402       .  A
C2243      C2244   1.401       .  A
C2243      H2251   1.084       .  S
C2244      H2252   1.083       .  S
C2245      C2246   1.208       .  T
C2247      C2248   1.208       .  T
C2253      C2261   1.442       .  S
C2253      C2254   1.402       .  A
C2253      C2258   1.401       .  A
C2254      C2255   1.402       .  A
C2254      H2263   1.084       .  S
C2255      C2256   1.403       .  A
C2255      H2264   1.083       .  S
C2256      C2259   1.441       .  S
C2256      C2257   1.401       .  A
C2257      C2258   1.397       .  A
C2257      H2265   1.084       .  S
C2258      H2266   1.083       .  S
C2259      C2260   1.207       .  T
C2261      C2262   1.207       .  T
C2267      C2275   1.443       .  S
C2267      C2268   1.402       .  A
C2267      C2272   1.402       .  A
C2268      C2269   1.400       .  A
C2268      H2277   1.084       .  S
C2269      C2270   1.402       .  A
C2269      H2278   1.083       .  S
C2270      C2273   1.443       .  S
C2270      C2271   1.402       .  A
C2271      C2272   1.401       .  A
C2271      H2279   1.084       .  S
C2272      H2280   1.083       .  S
C2273      C2274   1.208       .  T
C2275      C2276   1.208       .  T
C2281      C2289   1.441       .  S
C2281      C2282   1.402       .  A
C2281      C2286   1.401       .  A
C2282      C2283   1.399       .  A
C2282      H2291   1.083       .  S
C2283      C2284   1.401       .  A
C2283      H2292   1.084       .  S
C2284      C2287   1.441       .  S
C2284      C2285   1.402       .  A
C2285      C2286   1.400       .  A
C2285      H2293   1.083       .  S
C2286      H2294   1.084       .  S
C2287      C2288   1.207       .  T
C2289      C2290   1.207       .  T
C2295      C2303   1.441       .  S
C2295      C2296   1.402       .  A
C2295      C2300   1.401       .  A
C2296      C2297   1.401       .  A
C2296      H2305   1.083       .  S
C2297      C2298   1.402       .  A
C2297      H2306   1.083       .  S
C2298      C2301   1.441       .  S
C2298      C2299   1.401       .  A
C2299      C2300   1.398       .  A
C2299      H2307   1.083       .  S
C2300      H2308   1.084       .  S
C2301      C2302   1.206       .  T
C2303      C2304   1.207       .  T
C2309      C2317   1.440       .  S
C2309      C2310   1.401       .  A
C2309      C2314   1.401       .  A
C2310      C2311   1.398       .  A
C2310      H2319   1.084       .  S
C2311      C2312   1.401       .  A
C2311      H2320   1.083       .  S
C2312      C2315   1.440       .  S
C2312      C2313   1.402       .  A
C2313      C2314   1.400       .  A
C2313      H2321   1.083       .  S
C2314      H2322   1.083       .  S
C2315      C2316   1.206       .  T
C2317      C2318   1.206       .  T
C2323      C2331   1.441       .  S
C2323      C2324   1.401       .  A
C2323      C2328   1.402       .  A
C2324      C2325   1.399       .  A
C2324      H2333   1.083       .  S
C2325      C2326   1.402       .  A
C2325      H2334   1.084       .  S
C2326      C2329   1.441       .  S
C2326      C2327   1.401       .  A
C2327      C2328   1.399       .  A
C2327      H2335   1.083       .  S
C2328      H2336   1.084       .  S
C2329      C2330   1.207       .  T
C2331      C2332   1.207       .  T
