geometry optimzed in LAMMPS
_audit_creation_date              2020-11-30 
_audit_creation_method            'lammps2cif' 
_symmetry_space_group_name_H-M    'P1' 
_symmetry_Int_Tables_number       1 
_symmetry_cell_setting            triclinic 
loop_ 
_symmetry_equiv_pos_as_xyz 
  x,y,z 
_cell_length_a                    40.83130693 
_cell_length_b                    40.893051824479755 
_cell_length_c                    84.85421198352861 
_cell_angle_alpha                 90.0530381098409 
_cell_angle_beta                  90.06106600250203 
_cell_angle_gamma                 89.99535333539892 
loop_ 
_atom_site_label 
_atom_site_type_symbol 
_atom_site_fract_x 
_atom_site_fract_y 
_atom_site_fract_z 
_atom_site_charge 
N1          N  0.75306511  0.79470601  0.74741924    -0.36500
N2          N  0.75520687  0.74311044  0.72356820    -0.57000
N3          N  0.75068064  0.69405901  0.74836268    -0.36500
N4          N  0.75196995  0.74577671  0.77222965    -0.57000
C5          C  0.75917352  0.81282079  0.73442575     0.27100
C6          C  0.75846740  0.81398503  0.76013882     0.27100
C7          C  0.75619132  0.67428870  0.73583287     0.27100
C8          C  0.75390935  0.67575618  0.76154126     0.27100
C9          C  0.75232556  0.76924207  0.71390154     0.35700
C10         C  0.75227562  0.71617628  0.71439515     0.35700
C11         C  0.74875023  0.77276181  0.78129784     0.35700
C12         C  0.74688115  0.71989885  0.78178534     0.35700
C13         C  0.76802981  0.84423439  0.73899348    -0.21800
C14         C  0.76780408  0.84486689  0.75517777    -0.21800
C15         C  0.76234931  0.64279624  0.74113243    -0.21800
C16         C  0.76102490  0.64374094  0.75732147    -0.21800
C17         C  0.74844057  0.75880069  0.69845490    -0.22800
C18         C  0.74847516  0.72528392  0.69876543    -0.22800
C19         C  0.74195566  0.76399228  0.79672404    -0.22800
C20         C  0.74072722  0.73051169  0.79703233    -0.22800
C21         C  0.75506439  0.80240723  0.71859166    -0.18200
C22         C  0.75348274  0.80518853  0.77608246    -0.18200
C23         C  0.74969157  0.68674429  0.77726625    -0.18200
C24         C  0.75415016  0.68339985  0.71973925    -0.18200
H25         H  0.77377971  0.86486431  0.73153801     0.14700
H26         H  0.77342762  0.86588512  0.76245569     0.14700
H27         H  0.76712166  0.62124077  0.73409535     0.14700
H28         H  0.76469658  0.62307425  0.76508575     0.14700
H29         H  0.74629489  0.77369852  0.68797299     0.13000
H30         H  0.74617610  0.70947988  0.68858795     0.13000
H31         H  0.73852790  0.78001368  0.80674908     0.13000
H32         H  0.73613894  0.71567551  0.80735416     0.13000
H33         H  0.74204574  0.77184592  0.74751674     0.26300
H34         H  0.74199182  0.71784404  0.74792574     0.26300
N35         N  0.24268452  0.74850477  0.72711159    -0.36500
N36         N  0.23915663  0.79568795  0.75288792    -0.57000
N37         N  0.23814720  0.74223990  0.77555606    -0.36500
N38         N  0.24528136  0.69518416  0.74981835    -0.57000
C39         C  0.24801753  0.77655706  0.71908513     0.27100
C40         C  0.25002241  0.72338746  0.71736071     0.27100
C41         C  0.24071526  0.76794217  0.78554745     0.27100
C42         C  0.24384482  0.71472603  0.78396482     0.27100
C43         C  0.23620884  0.81656679  0.74064639     0.35700
C44         C  0.23361803  0.81336819  0.76607620     0.35700
C45         C  0.24415349  0.67718562  0.73645268     0.35700
C46         C  0.24309090  0.67384243  0.76193041     0.35700
C47         C  0.25840196  0.76918339  0.70394126    -0.21800
C48         C  0.25949127  0.73568093  0.70282015    -0.21800
C49         C  0.24724693  0.75649232  0.80061080    -0.21800
C50         C  0.24926009  0.72300054  0.79960890    -0.21800
C51         C  0.22905919  0.84773696  0.74608464    -0.22800
C52         C  0.22750969  0.84573697  0.76217975    -0.22800
C53         C  0.24202928  0.64421166  0.74012569    -0.22800
C54         C  0.24131463  0.64210856  0.75623142    -0.22800
C55         C  0.24215899  0.80860386  0.72470859    -0.18200
C56         C  0.24704701  0.68971072  0.72097280    -0.18200
C57         C  0.24359905  0.68223346  0.77810756    -0.18200
C58         C  0.23629658  0.80137054  0.78164798    -0.18200
H59         H  0.26427438  0.78615879  0.69458302     0.14700
H60         H  0.26639056  0.72207219  0.69240513     0.14700
H61         H  0.25023414  0.77072379  0.81127263     0.14700
H62         H  0.25425824  0.70661632  0.80932818     0.14700
H63         H  0.22591250  0.86979998  0.73920976     0.13000
H64         H  0.22294757  0.86599323  0.77009119     0.13000
H65         H  0.24151799  0.62368093  0.73207417     0.13000
H66         H  0.23980964  0.61968992  0.76296073     0.13000
H67         H  0.23115080  0.74653826  0.73796733     0.26300
H68         H  0.23000125  0.74316562  0.76397838     0.26300
N69         N  0.05362914  0.52041298  0.49686715    -0.36500
N70         N  0.00170705  0.52700079  0.47372575    -0.57000
N71         N  0.95285990  0.51903737  0.49805710    -0.36500
N72         N  0.00484596  0.50929054  0.52121017    -0.57000
C73         C  0.07051379  0.51679888  0.48326553     0.27100
C74         C  0.07237134  0.50794645  0.50855433     0.27100
C75         C  0.93407081  0.51549647  0.48497038     0.27100
C76         C  0.93558506  0.50722116  0.51040577     0.27100
C77         C  0.02756011  0.53708604  0.46511488     0.35700
C78         C  0.97466875  0.53594361  0.46564810     0.35700
C79         C  0.03196914  0.51147008  0.53032443     0.35700
C80         C  0.97887396  0.51122859  0.53105262     0.35700
C81         C  0.10034097  0.50184417  0.48637035    -0.21800
C82         C  0.10163070  0.49654138  0.50237705    -0.21800
C83         C  0.90441519  0.50140948  0.48910942    -0.21800
C84         C  0.90520864  0.49657950  0.50516537    -0.21800
C85         C  0.01694156  0.55309619  0.45165350    -0.22800
C86         C  0.98336789  0.55231927  0.45197886    -0.22800
C87         C  0.02322671  0.51443634  0.54603556    -0.22800
C88         C  0.98957636  0.51420799  0.54650246    -0.22800
C89         C  0.06028652  0.52830500  0.46832481    -0.18200
C90         C  0.06442874  0.50840676  0.52473554    -0.18200
C91         C  0.94576754  0.50776831  0.52637657    -0.18200
C92         C  0.94256624  0.52612299  0.46958129    -0.18200
H93         H  0.11933253  0.49557643  0.47801043     0.14700
H94         H  0.12174765  0.48544821  0.50874149     0.14700
H95         H  0.88410157  0.49547454  0.48142855     0.14700
H96         H  0.88557320  0.48635632  0.51215004     0.14700
H97         H  0.03182104  0.56338965  0.44234787     0.13000
H98         H  0.96721798  0.56196719  0.44299163     0.13000
H99         H  0.03939259  0.51603401  0.55612580     0.13000
H100        H  0.97472106  0.51554470  0.55703789     0.13000
H101        H  0.03224297  0.53389854  0.49835462     0.26300
H102        H  0.97472049  0.53194704  0.49884642     0.26300
C103        C  0.74175297  0.51785521  0.63171971     0.03300
C104        C  0.71683138  0.49419348  0.63107359    -0.12900
C105        C  0.71440226  0.47233690  0.61828160     0.00800
C106        C  0.73744207  0.47480620  0.60595382    -0.11400
C107        C  0.76312561  0.49779552  0.60654440     0.03200
C108        C  0.76477271  0.51935188  0.61944256    -0.10800
H109        H  0.70015416  0.49201590  0.64092513     0.08800
H110        H  0.73540620  0.45881716  0.59583001     0.06400
H111        H  0.78441722  0.53707509  0.62010637     0.06200
C112        C  0.23093759  0.49410912  0.61184894     0.03300
C113        C  0.22933350  0.51788644  0.62376480    -0.12900
C114        C  0.25130127  0.51720080  0.63646342     0.00800
C115        C  0.27458666  0.49198350  0.63739854    -0.11400
C116        C  0.27646545  0.46774638  0.62565630     0.03200
C117        C  0.25450216  0.46921679  0.61286190    -0.10800
H118        H  0.21139013  0.53735198  0.62298204     0.08800
H119        H  0.29085016  0.49108317  0.64747687     0.06400
H120        H  0.25629585  0.45159856  0.60336675     0.06200
N121        N  0.00129936  0.00595155  0.52634923    -0.36500
N122        N  0.95308800  0.99826780  0.50113165    -0.57000
N123        N  0.00570139  0.99852072  0.47846449    -0.36500
N124        N  0.05404482  0.00199590  0.50367934    -0.57000
C125        C  0.97400956  0.99928680  0.53476617     0.27100
C126        C  0.02722471  0.00170588  0.53608551     0.27100
C127        C  0.98021492  0.98827554  0.46951307     0.27100
C128        C  0.03346901  0.98942469  0.47098074     0.27100
C129        C  0.93326008  0.00637385  0.51326643     0.35700
C130        C  0.93572306  0.00358315  0.48779278     0.35700
C131        C  0.07109790  0.01174303  0.51649326     0.35700
C132        C  0.07338392  0.00788223  0.49110371     0.35700
C133        C  0.98262288  0.99111159  0.55007754    -0.21800
C134        C  0.01622041  0.99245731  0.55088978    -0.21800
C135        C  0.99191670  0.97209010  0.45630325    -0.21800
C136        C  0.02554948  0.97274182  0.45724633    -0.21800
C137        C  0.90310941  0.01663119  0.50767658    -0.22800
C138        C  0.90483284  0.01539843  0.49152337    -0.22800
C139        C  0.10141885  0.02383087  0.51207302    -0.22800
C140        C  0.10279178  0.02160813  0.49594554    -0.22800
C141        C  0.94151855  0.00297483  0.52932868    -0.18200
C142        C  0.06031674  0.00795291  0.53217313    -0.18200
C143        C  0.06552468  0.99867776  0.47550869    -0.18200
C144        C  0.94688651  0.99557601  0.47246166    -0.18200
H145        H  0.96637625  0.98519323  0.55973395     0.14700
H146        H  0.03079686  0.98755907  0.56128090     0.14700
H147        H  0.97771829  0.96130461  0.44685931     0.14700
H148        H  0.04226812  0.96262299  0.44863471     0.14700
H149        H  0.88217655  0.02446093  0.51452405     0.13000
H150        H  0.88541066  0.02229006  0.48351076     0.13000
H151        H  0.12050843  0.03329462  0.51967165     0.13000
H152        H  0.12321087  0.02905642  0.48866883     0.13000
H153        H  0.00190780  0.01636590  0.51520624     0.26300
H154        H  0.00430624  0.01458113  0.48794594     0.26300
C155        C  0.21799079  0.01732137  0.62304253     0.03300
C156        C  0.21733877  0.99355675  0.63485222    -0.12900
C157        C  0.23962206  0.99495337  0.64744120     0.00800
C158        C  0.26213395  0.02097700  0.64816810    -0.11400
C159        C  0.26424703  0.04428235  0.63595456     0.03200
C160        C  0.24165601  0.04199274  0.62342001    -0.10800
H161        H  0.20003470  0.97355893  0.63393329     0.08800
H162        H  0.27792409  0.02273152  0.65835327     0.06400
H163        H  0.24284325  0.05843109  0.61347123     0.06200
C164        C  0.73949668  0.97550784  0.63462954     0.03300
C165        C  0.76374649  0.97635479  0.62299295    -0.12900
C166        C  0.76493490  0.00174478  0.61204344     0.00800
C167        C  0.74111619  0.02650822  0.61266610    -0.11400
C168        C  0.71475869  0.02516811  0.62349405     0.03200
C169        C  0.71448483  0.99918214  0.63451203    -0.10800
H170        H  0.78250751  0.95760808  0.62277065     0.08800
H171        H  0.74347665  0.04664271  0.60453221     0.06400
H172        H  0.69530097  0.99715574  0.64319208     0.06200
N173        N  0.55443978  0.49667117  0.99850423    -0.36500
N174        N  0.50524270  0.49201568  0.97352243    -0.57000
N175        N  0.45433986  0.49847821  0.99672494    -0.36500
N176        N  0.50371406  0.50069939  0.02181166    -0.57000
C177        C  0.57336594  0.48818120  0.98611077     0.27100
C178        C  0.57253409  0.49254536  0.01175005     0.27100
C179        C  0.43690753  0.48819615  0.98408082     0.27100
C180        C  0.43610752  0.49217933  0.00964535     0.27100
C181        C  0.53229020  0.49609586  0.96463629     0.35700
C182        C  0.47941029  0.49606063  0.96375432     0.35700
C183        C  0.52966740  0.50880384  0.03093978     0.35700
C184        C  0.47659859  0.50928315  0.02991543     0.35700
C185        C  0.60397535  0.47859856  0.99148160    -0.21800
C186        C  0.60348460  0.48138422  0.00765457    -0.21800
C187        C  0.40723553  0.47537322  0.98897034    -0.21800
C188        C  0.40685780  0.47754276  0.00513692    -0.21800
C189        C  0.52357054  0.50237475  0.94911164    -0.22800
C190        C  0.48999339  0.50237889  0.94856624    -0.22800
C191        C  0.51891664  0.52240951  0.04498331    -0.22800
C192        C  0.48533612  0.52310563  0.04424150    -0.22800
C193        C  0.56469580  0.49188686  0.97007617    -0.18200
C194        C  0.56267220  0.50172606  0.02715160    -0.18200
C195        C  0.44424244  0.50156791  0.02522079    -0.18200
C196        C  0.44653155  0.49159715  0.96821830    -0.18200
H197        H  0.62480962  0.47119763  0.98445497     0.14700
H198        H  0.62400518  0.47665332  0.01539096     0.14700
H199        H  0.38792047  0.46542758  0.98165049     0.14700
H200        H  0.38707593  0.46953004  0.01267788     0.14700
H201        H  0.53969479  0.50607195  0.93915621     0.13000
H202        H  0.47510452  0.50612172  0.93816087     0.13000
H203        H  0.53353165  0.53065661  0.05484938     0.13000
H204        H  0.46920394  0.53211214  0.05337734     0.13000
H205        H  0.53216403  0.50877826  0.99771758     0.26300
H206        H  0.47560510  0.51247265  0.99644994     0.26300
C207        C  0.73193970  0.48826487  0.88343159     0.03300
C208        C  0.73165909  0.51129340  0.87121968    -0.12900
C209        C  0.75635405  0.51144965  0.85979764     0.00800
C210        C  0.78145947  0.48811827  0.86045665    -0.11400
C211        C  0.78187807  0.46440069  0.87240653     0.03200
C212        C  0.75688612  0.46460719  0.88382107    -0.10800
H213        H  0.71243662  0.52953476  0.87069581     0.08800
H214        H  0.80085649  0.48879583  0.85176185     0.06400
H215        H  0.75714112  0.44665127  0.89318862     0.06200
C216        C  0.27041715  0.48480830  0.88533435     0.03300
C217        C  0.26936287  0.50862306  0.87346444    -0.12900
C218        C  0.24342590  0.50942889  0.86256378     0.00800
C219        C  0.21789484  0.48659528  0.86403152    -0.11400
C220        C  0.21875120  0.46248036  0.87584620     0.03200
C221        C  0.24525123  0.46168446  0.88638456    -0.10800
H222        H  0.28891249  0.52646943  0.87270714     0.08800
H223        H  0.19767892  0.48714308  0.85576361     0.06400
H224        H  0.24638604  0.44304365  0.89543888     0.06200
N225        N  0.74468766  0.20617781  0.24883613    -0.36500
N226        N  0.74256951  0.25700682  0.27275204    -0.57000
N227        N  0.74309958  0.30624069  0.24794403    -0.36500
N228        N  0.74161328  0.25519275  0.22389707    -0.57000
C229        C  0.73808160  0.18824558  0.26187877     0.27100
C230        C  0.73726880  0.18743729  0.23615059     0.27100
C231        C  0.73778373  0.32567636  0.26059774     0.27100
C232        C  0.73840110  0.32465450  0.23490609     0.27100
C233        C  0.74767471  0.23096234  0.28226229     0.35700
C234        C  0.74641091  0.28399357  0.28178584     0.35700
C235        C  0.74816932  0.22838272  0.21510398     0.35700
C236        C  0.74797343  0.28138681  0.21467023     0.35700
C237        C  0.72637804  0.15779258  0.25743935    -0.21800
C238        C  0.72558960  0.15737680  0.24122978    -0.21800
C239        C  0.72987032  0.35695325  0.25551317    -0.21800
C240        C  0.73022342  0.35629586  0.23931373    -0.21800
C241        C  0.75425815  0.24141082  0.29747377    -0.22800
C242        C  0.75332547  0.27498112  0.29719132    -0.22800
C243        C  0.75859859  0.23769438  0.20020568    -0.22800
C244        C  0.75809693  0.27123820  0.19988461    -0.22800
C245        C  0.74415146  0.19791108  0.27764371    -0.18200
C246        C  0.74341334  0.19570195  0.22017269    -0.18200
C247        C  0.74375791  0.31437477  0.21919757    -0.18200
C248        C  0.74213642  0.31661723  0.27656975    -0.27800
H249        H  0.71927037  0.13785122  0.26508254     0.14700
H250        H  0.71777837  0.13699864  0.23400010     0.14700
H251        H  0.72500400  0.37827598  0.26270278     0.14700
H252        H  0.72566362  0.37698178  0.23166716     0.14700
H253        H  0.75873420  0.22642119  0.30775849     0.13000
H254        H  0.75707834  0.29089410  0.30722991     0.13000
H255        H  0.76599131  0.22208849  0.19054558     0.13000
H256        H  0.76481067  0.28642799  0.18995946     0.13000
H257        H  0.75750774  0.22810591  0.24858749     0.26300
H258        H  0.75301593  0.28296337  0.24817022     0.26300
N259        N  0.45528417  0.98398364  0.00174049    -0.36500
N260        N  0.50698515  0.98111720  0.02588010    -0.57000
N261        N  0.55607186  0.98629180  0.00132185    -0.36500
N262        N  0.50435612  0.98529938  0.97711065    -0.57000
C263        C  0.43702028  0.97780205  0.01467568     0.27100
C264        C  0.43581330  0.97963172  0.98898103     0.27100
C265        C  0.57577424  0.98079781  0.01391236     0.27100
C266        C  0.57445133  0.98250290  0.98819265     0.27100
C267        C  0.48057791  0.98410776  0.03537202     0.35700
C268        C  0.53372477  0.98445213  0.03520073     0.35700
C269        C  0.47748922  0.98836887  0.96787907     0.35700
C270        C  0.53060090  0.98939307  0.96763881     0.35700
C271        C  0.40534663  0.96991846  0.01006671    -0.21800
C272        C  0.40463080  0.97097696  0.99389096    -0.21800
C273        C  0.60721332  0.97400966  0.00869756    -0.21800
C274        C  0.60642301  0.97519478  0.99252215    -0.21800
C275        C  0.49067290  0.98861646  0.05084655    -0.22800
C276        C  0.52424071  0.98897324  0.05071984    -0.22800
C277        C  0.48670985  0.99392648  0.95240359    -0.22800
C278        C  0.52032619  0.99451010  0.95223876    -0.22800
C279        C  0.44746939  0.98106392  0.03053683    -0.18200
C280        C  0.44475940  0.98478934  0.97305655    -0.18200
C281        C  0.56373374  0.98656289  0.97240210    -0.18200
C282        C  0.56665250  0.98279478  0.03001490    -0.18200
H283        H  0.38464470  0.96433500  0.01753652     0.14700
H284        H  0.38339743  0.96621910  0.98659463     0.14700
H285        H  0.62860002  0.96874585  0.01580146     0.14700
H286        H  0.62718004  0.97117037  0.98484263     0.14700
H287        H  0.47551736  0.99117883  0.06122615     0.13000
H288        H  0.53982368  0.99220508  0.06092557     0.13000
H289        H  0.47089922  0.99682134  0.94225268     0.13000
H290        H  0.53545413  0.99792280  0.94190363     0.13000
H291        H  0.47849395  0.99427113  0.00177167     0.26300
H292        H  0.53236608  0.99532521  0.00164852     0.26300
C293        C  0.24113149  0.97244659  0.86718336     0.03300
C294        C  0.21848188  0.99826666  0.86686709    -0.12900
C295        C  0.21719047  0.02141234  0.87907740     0.00800
C296        C  0.23975035  0.01883181  0.89157743    -0.11400
C297        C  0.26404864  0.99436938  0.89171777     0.03200
C298        C  0.26429105  0.97113887  0.87944191    -0.10800
H299        H  0.20203630  0.00044837  0.85691369     0.08800
H300        H  0.23800467  0.03561362  0.90140052     0.06400
H301        H  0.28242151  0.95187486  0.87940019     0.06200
C302        C  0.73611486  0.99089123  0.88786104     0.03300
C303        C  0.76154289  0.01379077  0.88915653    -0.12900
C304        C  0.78405979  0.01857043  0.87682899     0.00800
C305        C  0.78168533  0.99833582  0.86340248    -0.11400
C306        C  0.75738293  0.97412662  0.86230655     0.03200
C307        C  0.73438671  0.97089296  0.87446687    -0.10800
H308        H  0.76363739  0.02778461  0.89993466     0.08800
H309        H  0.79805656  0.00166885  0.85352288     0.06400
H310        H  0.71510621  0.95280153  0.87347752     0.06200
N311        N  0.24864707  0.25594651  0.27471415    -0.36500
N312        N  0.25558853  0.20251507  0.25216997    -0.57000
N313        N  0.25437415  0.24890468  0.22672526    -0.36500
N314        N  0.24438557  0.30220266  0.24921793    -0.57000
C315        C  0.24294253  0.22989934  0.28410829     0.27100
C316        C  0.23908292  0.28293096  0.28269720     0.27100
C317        C  0.25120701  0.22052455  0.21864113     0.27100
C318        C  0.24443587  0.27319033  0.21706647     0.27100
C319        C  0.26199881  0.18649839  0.26571922     0.35700
C320        C  0.26596377  0.18294171  0.24035964     0.35700
C321        C  0.24634658  0.32367867  0.26128845     0.35700
C322        C  0.24752193  0.31987644  0.23588337     0.35700
C323        C  0.22975994  0.24045737  0.29828811    -0.21800
C324        C  0.22757371  0.27397680  0.29744678    -0.21800
C325        C  0.23911460  0.22694846  0.20367113    -0.21800
C326        C  0.23510738  0.26022970  0.20263988    -0.21800
C327        C  0.27654510  0.15658686  0.26252803    -0.22800
C328        C  0.27927949  0.15443594  0.24642964    -0.22800
C329        C  0.24997796  0.35522706  0.25557352    -0.22800
C330        C  0.25074466  0.35280388  0.23945553    -0.22800
C331        C  0.25221909  0.19734654  0.28077596    -0.18200
C332        C  0.24247091  0.31544408  0.27732522    -0.18200
C333        C  0.24573809  0.30691459  0.22050693    -0.18200
C334        C  0.26052307  0.18927400  0.22421787    -0.18200
H335        H  0.22319247  0.22565872  0.30836918     0.14700
H336        H  0.21877984  0.28986070  0.30672367     0.14700
H337        H  0.23389729  0.20956901  0.19438016     0.14700
H338        H  0.22640402  0.27342100  0.19240410     0.14700
H339        H  0.28403835  0.13809067  0.27090207     0.13000
H340        H  0.28931449  0.13397858  0.23993175     0.13000
H341        H  0.25134169  0.37771569  0.26227645     0.13000
H342        H  0.25301059  0.37301562  0.23130266     0.13000
H343        H  0.26210720  0.25570389  0.26434270     0.26300
H344        H  0.26627768  0.25199282  0.23745167     0.26300
C345        C  0.25711298  0.01406289  0.14078091     0.03300
C346        C  0.28274620  0.00981417  0.12990006    -0.12900
C347        C  0.27946110  0.98825277  0.11707311     0.00800
C348        C  0.25068069  0.96972055  0.11559216    -0.11400
C349        C  0.22543322  0.97271078  0.12666118     0.03200
C350        C  0.22841854  0.99552880  0.13889966    -0.10800
H351        H  0.30553273  0.02292320  0.13149270     0.08800
H352        H  0.24802753  0.95260658  0.10592912     0.06400
H353        H  0.20807594  0.99881349  0.14691954     0.06200
C354        C  0.74017514  0.98899181  0.11487961     0.03300
C355        C  0.73911488  0.01438961  0.12600333    -0.12900
C356        C  0.76324020  0.01731104  0.13783804     0.00800
C357        C  0.78899398  0.99424082  0.13802655    -0.11400
C358        C  0.78977537  0.96788760  0.12734220     0.03200
C359        C  0.76496257  0.96538476  0.11587500    -0.10800
H360        H  0.71873793  0.03123777  0.12550021     0.08800
H361        H  0.80894027  0.99692632  0.14631819     0.06400
H362        H  0.76506905  0.94531619  0.10753443     0.06200
C363        C  0.75296377  0.49398042  0.13840537     0.03300
C364        C  0.77634784  0.51916112  0.13886582    -0.12900
C365        C  0.78026182  0.54101661  0.12613982     0.00800
C366        C  0.75823500  0.53851711  0.11332729    -0.11400
C367        C  0.73345077  0.51469892  0.11311098     0.03200
C368        C  0.73171084  0.49200119  0.12541659    -0.10800
H369        H  0.79103217  0.52184933  0.14937507     0.08800
H370        H  0.76046764  0.55440807  0.10321873     0.06400
H371        H  0.71341431  0.47288496  0.12488083     0.06200
C372        C  0.26907957  0.49546652  0.10858327     0.03300
C373        C  0.24806845  0.52219489  0.11061228    -0.12900
C374        C  0.22463307  0.52254377  0.12266119     0.00800
C375        C  0.22386709  0.49674477  0.13353980    -0.11400
C376        C  0.24488839  0.46959824  0.13185006     0.03200
C377        C  0.26669866  0.46892463  0.11900558    -0.10800
H378        H  0.24998077  0.54307694  0.10282680     0.08800
H379        H  0.20665357  0.49790027  0.14319740     0.06400
H380        H  0.28165439  0.44752416  0.11693791     0.06200
C381        C  0.23660188  0.00258001  0.39008932     0.03300
C382        C  0.26148018  0.97891313  0.38928969    -0.12900
C383        C  0.28485752  0.97918912  0.37715855     0.00800
C384        C  0.28274690  0.00359396  0.36550977    -0.11400
C385        C  0.25818901  0.02751119  0.36614005     0.03200
C386        C  0.23545819  0.02704069  0.37847711    -0.10800
H387        H  0.26269995  0.96021636  0.39822416     0.08800
H388        H  0.29964295  0.00372527  0.35568602     0.06400
H389        H  0.21738396  0.04635472  0.37911841     0.06200
C390        C  0.75057305  0.02437360  0.36251207     0.03300
C391        C  0.77487258  0.02419622  0.37428905    -0.12900
C392        C  0.77566043  0.99963321  0.38596818     0.00800
C393        C  0.75146343  0.97504272  0.38557148    -0.11400
C394        C  0.72633510  0.97527648  0.37421036     0.03200
C395        C  0.72616330  0.00015560  0.36275668    -0.10800
H396        H  0.79273582  0.04373924  0.37446283     0.08800
H397        H  0.75260680  0.95499962  0.39385992     0.06400
H398        H  0.70705627  0.00066778  0.35390686     0.06200
C399        C  0.74513658  0.48746777  0.36197983     0.03300
C400        C  0.77032720  0.49112774  0.37317219    -0.12900
C401        C  0.77098699  0.51820445  0.38355378     0.00800
C402        C  0.74543195  0.54140071  0.38257291    -0.11400
C403        C  0.71984946  0.53769354  0.37161665     0.03200
C404        C  0.72008917  0.51086309  0.36138828    -0.10800
H405        H  0.78891819  0.47235355  0.37398031     0.08800
H406        H  0.74571139  0.56295164  0.38997654     0.06400
H407        H  0.70063229  0.50836125  0.35278597     0.06200
C408        C  0.24322934  0.50190522  0.35478967     0.03300
C409        C  0.22146909  0.50226068  0.36758207    -0.12900
C410        C  0.22053104  0.52874776  0.37808586     0.00800
C411        C  0.24251715  0.55477816  0.37583434    -0.11400
C412        C  0.26624119  0.55381093  0.36383733     0.03200
C413        C  0.26580939  0.52762776  0.35309989    -0.10800
H414        H  0.20577220  0.48134032  0.36954844     0.08800
H415        H  0.24143967  0.57583616  0.38354987     0.06400
H416        H  0.28343177  0.52693747  0.34359542     0.06200
O417        O  0.04436460  0.78485033  0.11335551    -0.72800
O418        O  0.97703482  0.71463688  0.11311504    -0.73800
O419        O  0.97558895  0.78351928  0.11415990    -0.62400
O420        O  0.04640619  0.71555360  0.11274409    -0.70800
O421        O  0.04824905  0.71469284  0.13885281    -0.70400
O422        O  0.97616377  0.78127881  0.14026061    -0.61600
O423        O  0.97883690  0.71165622  0.13922533    -0.74100
O424        O  0.04539943  0.78420160  0.13948561    -0.72900
Cu425      Cu  0.01089986  0.74959348  0.11245199     1.04600
Cu426      Cu  0.01225226  0.74785965  0.14038549     1.04300
C427        C  0.05501330  0.79627530  0.12637911     0.93400
C428        C  0.96696318  0.70226009  0.12602419     0.92500
C429        C  0.96472924  0.79328622  0.12748601     0.84700
C430        C  0.05851876  0.70430228  0.12555248     0.90900
O431        O  0.46884985  0.79654185  0.35683962    -0.72800
O432        O  0.53520692  0.72407043  0.35485464    -0.73800
O433        O  0.46556523  0.72745394  0.35423253    -0.62400
O434        O  0.53815446  0.79365243  0.35720924    -0.70800
O435        O  0.53616801  0.79081488  0.38326746    -0.70400
O436        O  0.46508921  0.72276763  0.38025336    -0.61600
O437        O  0.53439030  0.72142707  0.38094227    -0.74100
O438        O  0.46651147  0.79115264  0.38287141    -0.72900
Cu439      Cu  0.50202758  0.76054998  0.35485790     1.04600
Cu440      Cu  0.50061059  0.75640866  0.38272326     1.04300
C441        C  0.45692540  0.80480242  0.37018233     0.93400
C442        C  0.54520318  0.71117884  0.36771919     0.92500
C443        C  0.45362569  0.71482469  0.36674996     0.84700
C444        C  0.54839186  0.80309970  0.37070955     0.90900
O445        O  0.46475195  0.21488337  0.64077571    -0.72800
O446        O  0.53374668  0.28489128  0.63745740    -0.73800
O447        O  0.46451508  0.28442395  0.64023136    -0.62400
O448        O  0.53389462  0.21482778  0.63804679    -0.70800
O449        O  0.52993167  0.21406166  0.61196101    -0.70400
O450        O  0.45995866  0.28280452  0.61414634    -0.61600
O451        O  0.52989669  0.28331915  0.61135218    -0.74100
O452        O  0.46037101  0.21431946  0.61469180    -0.72900
Cu453      Cu  0.49948337  0.24979768  0.64004151     1.04600
Cu454      Cu  0.49496601  0.24861716  0.61213049     1.04300
C455        C  0.45122707  0.20410097  0.62821349     0.93400
C456        C  0.54268526  0.29505291  0.62388812     0.92500
C457        C  0.45088599  0.29404829  0.62749850     0.84700
C458        C  0.54267436  0.20327073  0.62469918     0.90900
O459        O  0.03560330  0.27528135  0.86571186    -0.72800
O460        O  0.96452409  0.20760043  0.86628180    -0.73800
O461        O  0.96629271  0.27731074  0.86479030    -0.62400
O462        O  0.03326399  0.20571031  0.86696882    -0.70800
O463        O  0.03280607  0.20836121  0.89312205    -0.70400
O464        O  0.96540007  0.27952275  0.89089314    -0.61600
O465        O  0.96307052  0.21031405  0.89241585    -0.74100
O466        O  0.03434903  0.27733527  0.89181986    -0.72900
Cu467      Cu  0.99992654  0.24141403  0.86501957     1.04600
Cu468      Cu  0.99881242  0.24393650  0.89296892     1.04300
C469        C  0.04621488  0.28704675  0.87872160     0.93400
C470        C  0.95285143  0.19806614  0.87946326     0.92500
C471        C  0.95547850  0.29001661  0.87752776     0.84700
C472        C  0.04360804  0.19582446  0.88034333     0.90900
C473        C  0.29280997  0.57880532  0.36335992    -0.01200
C474        C  0.30613673  0.58971161  0.34906299    -0.09200
C475        C  0.33222993  0.61191585  0.34886491    -0.18000
C476        C  0.34584063  0.62414376  0.36305218     0.04400
C477        C  0.33219226  0.61298833  0.37747648     0.18600
C478        C  0.30615858  0.59067073  0.37748982    -0.19400
C479        C  0.34481153  0.62381958  0.39189357    -0.20700
C480        C  0.37097176  0.64544413  0.39235485    -0.19200
C481        C  0.38503936  0.65697337  0.37840752     0.20000
C482        C  0.37258198  0.64676685  0.36352742     0.02100
C483        C  0.38743025  0.65976585  0.34984231    -0.14000
C484        C  0.41366122  0.68164598  0.35092907    -0.11700
C485        C  0.42608773  0.69126174  0.36563271     0.01600
C486        C  0.41151367  0.67879742  0.37931387    -0.23900
H487        H  0.29630846  0.58118412  0.33793988     0.09600
H488        H  0.34129875  0.61889694  0.33743294     0.13200
H489        H  0.29686776  0.58181044  0.38865991     0.11900
H490        H  0.33446459  0.61536672  0.40292160     0.13100
H491        H  0.38026032  0.65323379  0.40372529     0.12100
H492        H  0.37923595  0.65365384  0.33813111     0.09200
H493        H  0.42423242  0.69109920  0.34015562     0.12500
H494        H  0.42065157  0.68624469  0.39077115     0.14300
C495        C  0.69292346  0.56199205  0.37052435    -0.01200
C496        C  0.68219199  0.57308493  0.35577143    -0.09200
C497        C  0.65685280  0.59582310  0.35453677    -0.18000
C498        C  0.64135473  0.60844597  0.36812756     0.04400
C499        C  0.65167925  0.59636653  0.38305931     0.18600
C500        C  0.67727820  0.57350214  0.38411947    -0.19400
C501        C  0.63666758  0.60745448  0.39687344    -0.20700
C502        C  0.61236148  0.63116615  0.39625277    -0.19200
C503        C  0.60256712  0.64446500  0.38180992     0.20000
C504        C  0.61650890  0.63304321  0.36749168     0.02100
C505        C  0.60549118  0.64735090  0.35324221    -0.14000
C506        C  0.58232951  0.67252504  0.35330150    -0.11700
C507        C  0.56926559  0.68412029  0.36749831     0.01600
C508        C  0.57924109  0.66959923  0.38167600    -0.23900
H509        H  0.69384990  0.56450143  0.34507925     0.09600
H510        H  0.65020126  0.60321168  0.34278124     0.13200
H511        H  0.68495303  0.56447365  0.39555590     0.11900
H512        H  0.64411614  0.59806842  0.40826841     0.13100
H513        H  0.60155433  0.63959566  0.40718958     0.12100
H514        H  0.61457531  0.63996926  0.34186993     0.09200
H515        H  0.57482362  0.68309964  0.34216952     0.12500
H516        H  0.56910957  0.67812854  0.39274872     0.14300
C517        C  0.70042101  0.94943077  0.37425757    -0.01200
C518        C  0.68810585  0.93700079  0.38848795    -0.09200
C519        C  0.66355096  0.91313625  0.38860400    -0.18000
C520        C  0.65008555  0.90093919  0.37439391     0.04400
C521        C  0.66262176  0.91357074  0.36000511     0.18600
C522        C  0.68759053  0.93724018  0.36006498    -0.19400
C523        C  0.65012496  0.90259505  0.34557950    -0.20700
C524        C  0.62541541  0.87924905  0.34508686    -0.19200
C525        C  0.61262121  0.86612845  0.35900807     0.20000
C526        C  0.62467915  0.87676868  0.37388788     0.02100
C527        C  0.61073706  0.86269789  0.38755741    -0.14000
C528        C  0.58611331  0.83900737  0.38646684    -0.11700
C529        C  0.57445689  0.82843046  0.37177473     0.01600
C530        C  0.58783479  0.84230512  0.35809179    -0.23900
H531        H  0.69708558  0.94614584  0.39966546     0.09600
H532        H  0.65544918  0.90495315  0.40001714     0.13200
H533        H  0.69724214  0.94597048  0.34894632     0.11900
H534        H  0.65949717  0.91219698  0.33456935     0.13100
H535        H  0.61629478  0.87132668  0.33370696     0.12100
H536        H  0.61836085  0.86941490  0.39927857     0.09200
H537        H  0.57620235  0.82887438  0.39724179     0.12500
H538        H  0.57900950  0.83450440  0.34663359     0.14300
C539        C  0.43202593  0.83045569  0.37103958    -0.01200
C540        C  0.43585872  0.85909869  0.36231279    -0.09200
C541        C  0.41318468  0.88437061  0.36364130    -0.18000
C542        C  0.38542483  0.88115641  0.37345096     0.04400
C543        C  0.38061327  0.85106847  0.38148887     0.18600
C544        C  0.40446271  0.82646265  0.38064535    -0.19400
C545        C  0.35175219  0.84557214  0.38997796    -0.20700
C546        C  0.32710246  0.86905868  0.39018988    -0.19200
C547        C  0.33169708  0.89929607  0.38276137     0.20000
C548        C  0.36163770  0.90631440  0.37502748     0.02100
C549        C  0.36670962  0.93832985  0.36935051    -0.14000
C550        C  0.34214593  0.96185008  0.37039242    -0.11700
C551        C  0.31138731  0.95412727  0.37673359     0.01600
C552        C  0.30655004  0.92261988  0.38300344    -0.23900
H553        H  0.45687385  0.86220607  0.35467307     0.09600
H554        H  0.41742411  0.90570398  0.35646886     0.13200
H555        H  0.40117339  0.80379295  0.38708532     0.11900
H556        H  0.34778807  0.82259814  0.39604540     0.13100
H557        H  0.30452873  0.86374457  0.39639121     0.12100
H558        H  0.38979735  0.94614659  0.36447277     0.09200
H559        H  0.34753278  0.98630216  0.36627860     0.12500
H560        H  0.28310430  0.91577321  0.38793556     0.14300
C561        C  0.20009095  0.54924921  0.12316992    -0.01200
C562        C  0.18582155  0.55991405  0.10907765    -0.09200
C563        C  0.16319597  0.58528584  0.10896016    -0.18000
C564        C  0.15377275  0.60101089  0.12306650     0.04400
C565        C  0.16772579  0.58974087  0.13744370     0.18600
C566        C  0.19068057  0.56405412  0.13738307    -0.19400
C567        C  0.15869994  0.60423796  0.15174924    -0.20700
C568        C  0.13594757  0.62958666  0.15208803    -0.19200
C569        C  0.12184404  0.64122501  0.13811821     0.20000
C570        C  0.13080484  0.62729826  0.12339119     0.02100
C571        C  0.11637753  0.64031024  0.10959717    -0.14000
C572        C  0.09348531  0.66547505  0.11041168    -0.11700
C573        C  0.08409132  0.67867415  0.12493487     0.01600
C574        C  0.09863587  0.66660812  0.13876837    -0.23900
H575        H  0.19200801  0.54830955  0.09798938     0.09600
H576        H  0.15342522  0.59174522  0.09759719     0.13200
H577        H  0.20160045  0.55596345  0.14835911     0.11900
H578        H  0.16919507  0.59581793  0.16275988     0.13100
H579        H  0.12932464  0.64015769  0.16336080     0.12100
H580        H  0.12214994  0.63165340  0.09794452     0.09200
H581        H  0.08281953  0.67438752  0.09954006     0.12500
H582        H  0.09172445  0.67678088  0.15009047     0.14300
C583        C  0.80742018  0.56586664  0.12618480    -0.01200
C584        C  0.80545355  0.59432718  0.11692770    -0.09200
C585        C  0.83135141  0.61655718  0.11628592    -0.18000
C586        C  0.85988013  0.61193111  0.12542067     0.04400
C587        C  0.86096258  0.58469034  0.13571424     0.18600
C588        C  0.83570995  0.56139619  0.13550244    -0.19400
C589        C  0.88711289  0.58103186  0.14627968    -0.20700
C590        C  0.91207861  0.60416637  0.14689887    -0.19200
C591        C  0.91250875  0.63036657  0.13630456     0.20000
C592        C  0.88698758  0.63385850  0.12501037     0.02100
C593        C  0.89004457  0.65864626  0.11353735    -0.14000
C594        C  0.91658420  0.68002586  0.11373957    -0.11700
C595        C  0.94046285  0.67790863  0.12553925     0.01600
C596        C  0.93844811  0.65294082  0.13677408    -0.23900
H597        H  0.78372229  0.60001440  0.11019125     0.09600
H598        H  0.82783487  0.63785361  0.10898762     0.13200
H599        H  0.83862511  0.53968128  0.14262332     0.11900
H600        H  0.88786760  0.56055326  0.15437093     0.13100
H601        H  0.93155093  0.60112628  0.15546400     0.12100
H602        H  0.87269364  0.66158943  0.10405377     0.09200
H603        H  0.91800409  0.69888303  0.10480353     0.12500
H604        H  0.95739635  0.65073179  0.14567694     0.14300
C605        C  0.81661028  0.94313604  0.12804866    -0.01200
C606        C  0.82886953  0.93205421  0.14255640    -0.09200
C607        C  0.85329766  0.90807510  0.14320601    -0.18000
C608        C  0.86633053  0.89420419  0.12927078     0.04400
C609        C  0.85443169  0.90616191  0.11461284     0.18600
C610        C  0.82992684  0.93022728  0.11414558    -0.19400
C611        C  0.86698549  0.89403026  0.10043497    -0.20700
C612        C  0.89107990  0.87008567  0.10044376    -0.19200
C613        C  0.90293239  0.85732034  0.11462932     0.20000
C614        C  0.89067181  0.86898984  0.12927879     0.02100
C615        C  0.90309021  0.85460911  0.14322237    -0.14000
C616        C  0.92683076  0.82998961  0.14259652    -0.11700
C617        C  0.93906851  0.81889694  0.12811366     0.01600
C618        C  0.92691912  0.83275038  0.11418745    -0.23900
H619        H  0.81907695  0.94148209  0.15351142     0.09600
H620        H  0.86139938  0.90086625  0.15478307     0.13200
H621        H  0.82138344  0.93915765  0.10284218     0.11900
H622        H  0.85809644  0.90314635  0.08922899     0.13100
H623        H  0.90031425  0.86127505  0.08924597     0.12100
H624        H  0.89479110  0.86167614  0.15478352     0.09200
H625        H  0.93567949  0.81965207  0.15355062     0.12500
H626        H  0.93610944  0.82437308  0.10289881     0.14300
C627        C  0.07817446  0.82396093  0.12614400    -0.01200
C628        C  0.08470203  0.84035232  0.11199482    -0.09200
C629        C  0.10660659  0.86645836  0.11155500    -0.18000
C630        C  0.12299399  0.87693098  0.12533603     0.04400
C631        C  0.11567226  0.86066457  0.13972973     0.18600
C632        C  0.09344579  0.83454466  0.14000552    -0.19400
C633        C  0.13086366  0.87025985  0.15376112    -0.20700
C634        C  0.15383486  0.89523613  0.15378415    -0.19200
C635        C  0.16227120  0.91106645  0.13976415     0.20000
C636        C  0.14680786  0.90246480  0.12533216     0.02100
C637        C  0.15657378  0.91920225  0.11150775    -0.14000
C638        C  0.18146825  0.94258358  0.11197272    -0.11700
C639        C  0.19705768  0.95027491  0.12619583     0.01600
C640        C  0.18687997  0.93484715  0.14006673    -0.23900
H641        H  0.07277105  0.83302119  0.10114464     0.09600
H642        H  0.11026308  0.87776356  0.10023395     0.13200
H643        H  0.08834243  0.82218805  0.15103509     0.11900
H644        H  0.12522834  0.85809601  0.16477347     0.13100
H645        H  0.16551526  0.90183497  0.16481516     0.12100
H646        H  0.14595960  0.91438373  0.10011495     0.09200
H647        H  0.18875355  0.95452624  0.10113884     0.12500
H648        H  0.19917890  0.94037872  0.15108755     0.14300
C649        C  0.24587349  0.32978475  0.20708651    -0.01200
C650        C  0.27465343  0.33423747  0.19851571    -0.09200
C651        C  0.27527425  0.35525930  0.18562601    -0.18000
C652        C  0.24680386  0.37242936  0.18091990     0.04400
C653        C  0.21759301  0.36760583  0.18976408     0.18600
C654        C  0.21740006  0.34639482  0.20273975    -0.19400
C655        C  0.18884063  0.38412922  0.18566974    -0.20700
C656        C  0.18852073  0.40582341  0.17308522    -0.19200
C657        C  0.21696086  0.41153594  0.16431436     0.20000
C658        C  0.24640385  0.39464326  0.16796937     0.02100
C659        C  0.27431271  0.40122515  0.15868229    -0.14000
C660        C  0.27355255  0.42503000  0.14695529    -0.11700
C661        C  0.24472873  0.44247247  0.14363184     0.01600
C662        C  0.21623812  0.43463464  0.15209820    -0.23900
H663        H  0.29678021  0.32134643  0.20186232     0.09600
H664        H  0.29843052  0.35757320  0.17967538     0.13200
H665        H  0.19514577  0.34265593  0.20947019     0.11900
H666        H  0.16651605  0.38048868  0.19234205     0.13100
H667        H  0.16596578  0.41858743  0.17033467     0.12100
H668        H  0.29742396  0.38906104  0.16042205     0.09200
H669        H  0.29618705  0.43038979  0.14087004     0.12500
H670        H  0.19334599  0.44673739  0.14935956     0.14300
C671        C  0.25994823  0.03791300  0.15400371    -0.01200
C672        C  0.24451267  0.03186718  0.16848829    -0.09200
C673        C  0.24500012  0.05509022  0.18052884    -0.18000
C674        C  0.26163687  0.08510980  0.17862981     0.04400
C675        C  0.27914466  0.09024303  0.16438798     0.18600
C676        C  0.27755663  0.06714950  0.15216511    -0.19400
C677        C  0.29804251  0.11848447  0.16239484    -0.20700
C678        C  0.29972312  0.14193874  0.17423726    -0.19200
C679        C  0.28145009  0.13836440  0.18807221     0.20000
C680        C  0.26168410  0.11013541  0.19036281     0.02100
C681        C  0.24199462  0.10869590  0.20404408    -0.14000
C682        C  0.24205924  0.13417333  0.21497905    -0.11700
C683        C  0.26210942  0.16156339  0.21283936     0.01600
C684        C  0.28210302  0.16330596  0.19945611    -0.23900
H685        H  0.23195912  0.00898198  0.17061868     0.09600
H686        H  0.23264785  0.04857175  0.19129610     0.13200
H687        H  0.28960751  0.07241262  0.14108623     0.11900
H688        H  0.31180138  0.12236308  0.15164064     0.13100
H689        H  0.31474517  0.16344070  0.17238413     0.12100
H690        H  0.22542371  0.08876341  0.20635237     0.09200
H691        H  0.22594053  0.13274525  0.22508956     0.12500
H692        H  0.29739770  0.18467516  0.19769917     0.14300
C693        C  0.24145670  0.34231572  0.28901249    -0.01200
C694        C  0.21157096  0.35335361  0.29495545    -0.09200
C695        C  0.21055925  0.37918537  0.30569375    -0.18000
C696        C  0.23966002  0.39497728  0.31068527     0.04400
C697        C  0.26993044  0.38364667  0.30443994     0.18600
C698        C  0.27053457  0.35750042  0.29373498    -0.19400
C699        C  0.29940809  0.39845442  0.30890160    -0.20700
C700        C  0.29959650  0.42413983  0.31962303    -0.19200
C701        C  0.27029206  0.43578248  0.32605453     0.20000
C702        C  0.23986208  0.42153980  0.32161699     0.02100
C703        C  0.21098722  0.43458226  0.32829824    -0.14000
C704        C  0.21231468  0.46058964  0.33889519    -0.11700
C705        C  0.24236163  0.47434753  0.34337951     0.01600
C706        C  0.27128651  0.46167497  0.33691309    -0.23900
H707        H  0.18892557  0.34187001  0.29124585     0.09600
H708        H  0.18663418  0.38617961  0.30982039     0.13200
H709        H  0.29363318  0.34896589  0.28894896     0.11900
H710        H  0.32251282  0.39001364  0.30411188     0.13100
H711        H  0.32284588  0.43500828  0.32289375     0.12100
H712        H  0.18692950  0.42546233  0.32550928     0.09200
H713        H  0.18951548  0.47024064  0.34346390     0.12500
H714        H  0.29473945  0.47169016  0.34046309     0.14300
C715        C  0.25604306  0.05303824  0.35385887    -0.01200
C716        C  0.22630860  0.05900334  0.34617563    -0.09200
C717        C  0.22400594  0.08293268  0.33451544    -0.18000
C718        C  0.25155489  0.10194493  0.33025227     0.04400
C719        C  0.28153594  0.09612678  0.33835045     0.18600
C720        C  0.28355000  0.07170472  0.34992244    -0.19400
C721        C  0.30940670  0.11459138  0.33481519    -0.20700
C722        C  0.30844026  0.13832843  0.32313706    -0.19200
C723        C  0.27961524  0.14410026  0.31467822     0.20000
C724        C  0.25059715  0.12623792  0.31817138     0.02100
C725        C  0.22209987  0.13321805  0.30925307    -0.14000
C726        C  0.22274008  0.15636007  0.29717831    -0.11700
C727        C  0.25154429  0.17331295  0.29375364     0.01600
C728        C  0.27976691  0.16744885  0.30259297    -0.23900
H729        H  0.20479307  0.04472777  0.34907877     0.09600
H730        H  0.20035909  0.08586610  0.32906236     0.13200
H731        H  0.30650302  0.06738188  0.35602253     0.11900
H732        H  0.33221718  0.11046426  0.34104780     0.13100
H733        H  0.33052575  0.15202911  0.32057956     0.12100
H734        H  0.19906563  0.12104922  0.31119472     0.09200
H735        H  0.20069796  0.16102805  0.29042336     0.12500
H736        H  0.30196580  0.18086669  0.29987376     0.14300
C737        C  0.80914775  0.04519467  0.87788233    -0.01200
C738        C  0.80305027  0.07352048  0.88683766    -0.09200
C739        C  0.82617214  0.09851692  0.88792914    -0.18000
C740        C  0.85596551  0.09677438  0.87957343     0.04400
C741        C  0.86149638  0.06898834  0.86987962     0.18600
C742        C  0.83886283  0.04314940  0.86958663    -0.19400
C743        C  0.88927395  0.06744567  0.86025716    -0.20700
C744        C  0.91135594  0.09328463  0.85982671    -0.19200
C745        C  0.90712044  0.12046372  0.86964142     0.20000
C746        C  0.87999542  0.12207310  0.88009360     0.02100
C747        C  0.87843380  0.14863659  0.89077191    -0.14000
C748        C  0.90232997  0.17307116  0.89067763    -0.11700
C749        C  0.92785743  0.17220433  0.87971081     0.01600
C750        C  0.93014436  0.14588121  0.86922920    -0.23900
H751        H  0.77995661  0.07703140  0.89283302     0.09600
H752        H  0.81943338  0.11955965  0.89487220     0.13200
H753        H  0.84455779  0.02155357  0.86273461     0.11900
H754        H  0.89350513  0.04648744  0.85270048     0.13100
H755        H  0.93219273  0.09174810  0.85195753     0.12100
H756        H  0.85953153  0.15071693  0.89957912     0.09200
H757        H  0.90059239  0.19299819  0.89905987     0.12500
H758        H  0.95049795  0.14472813  0.86103991     0.14300
C759        C  0.19217347  0.04805831  0.87886379    -0.01200
C760        C  0.19947478  0.07893824  0.88518323    -0.09200
C761        C  0.17580362  0.10350676  0.88579380    -0.18000
C762        C  0.14399242  0.09826827  0.87976380     0.04400
C763        C  0.13734943  0.06796780  0.87223879     0.18600
C764        C  0.16094711  0.04296526  0.87226748    -0.19400
C765        C  0.10726105  0.06292187  0.86466662    -0.20700
C766        C  0.08379997  0.08760532  0.86426111    -0.19200
C767        C  0.08910873  0.11713518  0.87222590     0.20000
C768        C  0.11878138  0.12231471  0.88063787     0.02100
C769        C  0.12159989  0.15091742  0.88992369    -0.14000
C770        C  0.09656801  0.17414886  0.89021114    -0.11700
C771        C  0.06856876  0.17001257  0.88094432     0.01600
C772        C  0.06481490  0.14144592  0.87202069    -0.23900
H773        H  0.22373278  0.08433478  0.88963921     0.09600
H774        H  0.18333610  0.12670024  0.89065446     0.13200
H775        H  0.15468353  0.01939994  0.86726477     0.11900
H776        H  0.10211821  0.03999972  0.85873769     0.13100
H777        H  0.06106605  0.08329087  0.85798884     0.12100
H778        H  0.14252406  0.15555692  0.89736334     0.09200
H779        H  0.09948669  0.19590751  0.89737321     0.12500
H780        H  0.04264301  0.13791241  0.86517211     0.14300
C781        C  0.59330680  0.98363957  0.04208837    -0.01200
C782        C  0.61412612  0.01073588  0.04297555    -0.09200
C783        C  0.63898026  0.01227698  0.05428892    -0.18000
C784        C  0.64382531  0.98655470  0.06520715     0.04400
C785        C  0.62296680  0.95876801  0.06404862     0.18600
C786        C  0.59797213  0.95759934  0.05259371    -0.19400
C787        C  0.62711740  0.93237726  0.07436418    -0.20700
C788        C  0.65142948  0.93297765  0.08587985    -0.19200
C789        C  0.67199656  0.96016287  0.08753319     0.20000
C790        C  0.66842578  0.98744551  0.07726186     0.02100
C791        C  0.68929583  0.01462533  0.07969737    -0.14000
C792        C  0.71229558  0.01483820  0.09189797    -0.11700
C793        C  0.71578485  0.98790593  0.10191395     0.01600
C794        C  0.69584044  0.96043846  0.09955916    -0.23900
H795        H  0.61098569  0.03094497  0.03486543     0.09600
H796        H  0.65398827  0.03393042  0.05415544     0.13200
H797        H  0.58202214  0.93645404  0.05182811     0.11900
H798        H  0.61140316  0.91108598  0.07353028     0.13100
H799        H  0.65392281  0.91213981  0.09367373     0.12100
H800        H  0.68817261  0.03631715  0.07252938     0.09200
H801        H  0.72767026  0.03618941  0.09348394     0.12500
H802        H  0.69838046  0.93959546  0.10735891     0.14300
C803        C  0.42208303  0.98096482  0.04299439    -0.01200
C804        C  0.40755369  0.95165250  0.04770726    -0.09200
C805        C  0.38451770  0.95131181  0.05983750    -0.18000
C806        C  0.37579452  0.98046312  0.06781687     0.04400
C807        C  0.39084466  0.01014229  0.06290704     0.18600
C808        C  0.41346109  0.01015612  0.05049013    -0.19400
C809        C  0.38348086  0.03960243  0.07049568    -0.20700
C810        C  0.36116506  0.04038473  0.08281733    -0.19200
C811        C  0.34555394  0.01175534  0.08778823     0.20000
C812        C  0.35274311  0.98131029  0.08045733     0.02100
C813        C  0.33639104  0.95314985  0.08606750    -0.14000
C814        C  0.31333960  0.95534080  0.09814901    -0.11700
C815        C  0.30570926  0.98556099  0.10503874     0.01600
C816        C  0.32232370  0.01357689  0.09991088    -0.23900
H817        H  0.41417898  0.92892192  0.04196725     0.09600
H818        H  0.37425352  0.92783444  0.06275964     0.13200
H819        H  0.42495353  0.03280216  0.04679758     0.11900
H820        H  0.39505030  0.06222592  0.06686435     0.13100
H821        H  0.35589120  0.06361938  0.08842632     0.12100
H822        H  0.34066525  0.92909155  0.08132192     0.09200
H823        H  0.30140850  0.93317331  0.10210466     0.12500
H824        H  0.31640210  0.03716097  0.10501325     0.14300
C825        C  0.71081127  0.98884352  0.90032966    -0.01200
C826        C  0.69957729  0.95855372  0.90576278    -0.09200
C827        C  0.67566660  0.95681442  0.91748843    -0.18000
C828        C  0.66210540  0.98554159  0.92414801     0.04400
C829        C  0.67367054  0.01619109  0.91855486     0.18600
C830        C  0.69762852  0.01753211  0.90676285    -0.19400
C831        C  0.66130333  0.04540298  0.92474770    -0.20700
C832        C  0.63769087  0.04492757  0.93650573    -0.19200
C833        C  0.62568541  0.01522704  0.94225985     0.20000
C834        C  0.63756078  0.98504269  0.93612925     0.02100
C835        C  0.62420497  0.95573740  0.94223033    -0.14000
C836        C  0.60019658  0.95645974  0.95390313    -0.11700
C837        C  0.58898145  0.98621534  0.95990206     0.01600
C838        C  0.60172461  0.01552129  0.95410269    -0.23900
H839        H  0.70963773  0.93606332  0.90106204     0.09600
H840        H  0.66848096  0.93263056  0.92111853     0.13200
H841        H  0.70583253  0.04109420  0.90243516     0.11900
H842        H  0.67004984  0.06881746  0.92050213     0.13100
H843        H  0.62867942  0.06797057  0.94110074     0.12100
H844        H  0.63164242  0.93188839  0.93820635     0.09200
H845        H  0.59036049  0.93366736  0.95835574     0.12500
H846        H  0.59280416  0.03852379  0.95881060     0.14300
C847        C  0.41799847  0.98682589  0.96119464    -0.01200
C848        C  0.40268461  0.01680577  0.95836393    -0.09200
C849        C  0.37690998  0.01917834  0.94758636    -0.18000
C850        C  0.36551666  0.99133430  0.93930760     0.04400
C851        C  0.38058563  0.96071850  0.94264569     0.18600
C852        C  0.40684418  0.95880750  0.95336820    -0.19400
C853        C  0.36919044  0.93219294  0.93534742    -0.20700
C854        C  0.34321049  0.93337549  0.92474085    -0.19200
C855        C  0.32856476  0.96323896  0.92080157     0.20000
C856        C  0.33971284  0.99270621  0.92789425     0.02100
C857        C  0.32507581  0.02230674  0.92295895    -0.14000
C858        C  0.30070677  0.02262337  0.91139274    -0.11700
C859        C  0.28935152  0.99349063  0.90451139     0.01600
C860        C  0.30322252  0.96380523  0.90955714    -0.23900
H861        H  0.41069448  0.03850651  0.96460561     0.09600
H862        H  0.36612639  0.04303986  0.94616686     0.13200
H863        H  0.41839512  0.93547884  0.95582190     0.11900
H864        H  0.38035248  0.90874826  0.93792057     0.13100
H865        H  0.33492711  0.91080679  0.91934342     0.12100
H866        H  0.33263610  0.04577955  0.92744496     0.09200
H867        H  0.29136925  0.04608463  0.90756832     0.12500
H868        H  0.29450503  0.94091026  0.90469020     0.14300
C869        C  0.74493225  0.33985886  0.20681445    -0.01200
C870        C  0.71691899  0.34696019  0.19800992    -0.09200
C871        C  0.71709369  0.37242100  0.18708033    -0.18000
C872        C  0.74558511  0.39144322  0.18461781     0.04400
C873        C  0.77447796  0.38281381  0.19300307     0.18600
C874        C  0.77373216  0.35757345  0.20421132    -0.19400
C875        C  0.80389018  0.39930508  0.19006467    -0.20700
C876        C  0.80533690  0.42386145  0.17873756    -0.19200
C877        C  0.77706848  0.43353352  0.17061945     0.20000
C878        C  0.74658592  0.41824693  0.17389138     0.02100
C879        C  0.71827806  0.43081429  0.16650385    -0.14000
C880        C  0.72041621  0.45610616  0.15557053    -0.11700
C881        C  0.75080959  0.46941286  0.15133644     0.01600
C882        C  0.77904875  0.45833543  0.15919634    -0.23900
H883        H  0.69468391  0.33299179  0.19978359     0.09600
H884        H  0.69476830  0.37628784  0.18055176     0.13200
H885        H  0.79552367  0.35158401  0.21093273     0.11900
H886        H  0.82605517  0.39273334  0.19634794     0.13100
H887        H  0.82862526  0.43565577  0.17646072     0.12100
H888        H  0.69402659  0.42201350  0.16916805     0.09200
H889        H  0.69796913  0.46519762  0.15038011     0.12500
H890        H  0.80277955  0.46843112  0.15620880     0.14300
C891        C  0.76112114  0.04367564  0.15017175    -0.01200
C892        C  0.77494631  0.03897649  0.16519258    -0.09200
C893        C  0.77279356  0.06298339  0.17685881    -0.18000
C894        C  0.75567652  0.09245303  0.17417840     0.04400
C895        C  0.74019056  0.09664833  0.15933540     0.18600
C896        C  0.74405350  0.07308250  0.14738291    -0.19400
C897        C  0.72044823  0.12409825  0.15660436    -0.20700
C898        C  0.71553883  0.14729292  0.16839015    -0.19200
C899        C  0.73170590  0.14457410  0.18288885     0.20000
C900        C  0.75279574  0.11758495  0.18580858     0.02100
C901        C  0.77077067  0.11735899  0.20005540    -0.14000
C902        C  0.76764586  0.14269452  0.21098138    -0.11700
C903        C  0.74587951  0.16861556  0.20836619     0.01600
C904        C  0.72755530  0.16908416  0.19435883    -0.23900
H905        H  0.78696311  0.01628163  0.16823990     0.09600
H906        H  0.78367872  0.05720402  0.18809745     0.13200
H907        H  0.73344294  0.07788875  0.13592979     0.11900
H908        H  0.70816616  0.12731089  0.14538241     0.13100
H909        H  0.69963388  0.16792803  0.16600359     0.12100
H910        H  0.78834560  0.09854303  0.20281938     0.09200
H911        H  0.78252996  0.14216951  0.22155599     0.12500
H912        H  0.71074721  0.18912788  0.19220929     0.14300
C913        C  0.74185191  0.34287159  0.28863701    -0.01200
C914        C  0.71213344  0.35443078  0.29457224    -0.09200
C915        C  0.71164765  0.37777831  0.30657741    -0.18000
C916        C  0.74113428  0.39005334  0.31309267     0.04400
C917        C  0.77119938  0.37942605  0.30637308     0.18600
C918        C  0.77129679  0.35580663  0.29433650    -0.19400
C919        C  0.80092885  0.39234432  0.31175826    -0.20700
C920        C  0.80146831  0.41571884  0.32368894    -0.19200
C921        C  0.77237081  0.42594765  0.33088646     0.20000
C922        C  0.74185587  0.41266798  0.32592380     0.02100
C923        C  0.71343196  0.42210414  0.33422857    -0.14000
C924        C  0.71500102  0.44509081  0.34633835    -0.11700
C925        C  0.74477314  0.45984518  0.35053182     0.01600
C926        C  0.77354094  0.44954159  0.34296730    -0.23900
H927        H  0.68921105  0.34508037  0.28996797     0.09600
H928        H  0.68785453  0.38588431  0.31043362     0.13200
H929        H  0.79426911  0.34712823  0.28947881     0.11900
H930        H  0.82391726  0.38451921  0.30661199     0.13100
H931        H  0.82485208  0.42556506  0.32744749     0.12100
H932        H  0.68964117  0.41189295  0.33176539     0.09200
H933        H  0.69256685  0.45162637  0.35236862     0.12500
H934        H  0.79676838  0.46057825  0.34614610     0.14300
C935        C  0.75071432  0.04974588  0.34987501    -0.01200
C936        C  0.77982914  0.05793570  0.34206705    -0.09200
C937        C  0.78010084  0.08143134  0.33006185    -0.18000
C938        C  0.75108548  0.09791511  0.32551769     0.04400
C939        C  0.72160405  0.08941040  0.33344496     0.18600
C940        C  0.72166105  0.06552665  0.34538363    -0.19400
C941        C  0.69217105  0.10493210  0.32949603    -0.20700
C942        C  0.69129039  0.12893253  0.31790702    -0.19200
C943        C  0.71979504  0.13802293  0.30989585     0.20000
C944        C  0.75016432  0.12259951  0.31350709     0.02100
C945        C  0.77817499  0.13274182  0.30496690    -0.14000
C946        C  0.77600401  0.15704239  0.29339244    -0.11700
C947        C  0.74605108  0.17206751  0.28998251     0.01600
C948        C  0.71805498  0.16253508  0.29828119    -0.23900
H949        H  0.80251745  0.04575427  0.34512985     0.09600
H950        H  0.80341558  0.08620018  0.32459154     0.13200
H951        H  0.69902353  0.05956908  0.35140076     0.11900
H952        H  0.66961880  0.09855598  0.33547645     0.13100
H953        H  0.66808664  0.14052535  0.31520295     0.12100
H954        H  0.80208138  0.12237032  0.30695230     0.09200
H955        H  0.79786953  0.16425163  0.28706415     0.12500
H956        H  0.69486194  0.17422057  0.29561425     0.14300
C957        C  0.19277470  0.43724987  0.87681344    -0.01200
C958        C  0.18057349  0.42710765  0.89144475    -0.09200
C959        C  0.15715049  0.40234024  0.89239973    -0.18000
C960        C  0.14497460  0.38700113  0.87864000     0.04400
C961        C  0.15673653  0.39812187  0.86382558     0.18600
C962        C  0.18065025  0.42263536  0.86306520    -0.19400
C963        C  0.14440409  0.38491115  0.84981616    -0.20700
C964        C  0.12006303  0.36122301  0.85016877    -0.19200
C965        C  0.10830419  0.34936860  0.86454664     0.20000
C966        C  0.12115309  0.36148431  0.87900176     0.02100
C967        C  0.10976451  0.34733603  0.89315981    -0.14000
C968        C  0.08572507  0.32312817  0.89296730    -0.11700
C969        C  0.07225159  0.31215130  0.87871628     0.01600
C970        C  0.08383881  0.32528078  0.86453608    -0.23900
H971        H  0.18905696  0.43852947  0.90222489     0.09600
H972        H  0.14866760  0.39616950  0.90404385     0.13200
H973        H  0.19014188  0.43009622  0.85169545     0.11900
H974        H  0.15325910  0.39335715  0.83849099     0.13100
H975        H  0.11057106  0.35189902  0.83911001     0.12100
H976        H  0.11920725  0.35415576  0.90456050     0.09200
H977        H  0.07765619  0.31297631  0.90409118     0.12500
H978        H  0.07383717  0.31673850  0.85342825     0.14300
C979        C  0.80896178  0.44021346  0.87333218    -0.01200
C980        C  0.82210424  0.43157192  0.88799367    -0.09200
C981        C  0.84711082  0.40855275  0.88914731    -0.18000
C982        C  0.86002609  0.39323283  0.87556862     0.04400
C983        C  0.84750177  0.40287192  0.86064263     0.18600
C984        C  0.82208355  0.42596516  0.85966108    -0.19400
C985        C  0.86020399  0.38916205  0.84681127    -0.20700
C986        C  0.88458566  0.36543398  0.84750425    -0.19200
C987        C  0.89652825  0.35451319  0.86205264     0.20000
C988        C  0.88458653  0.36843899  0.87629397     0.02100
C989        C  0.89716811  0.35635867  0.89067764    -0.14000
C990        C  0.92008265  0.33115627  0.89092580    -0.11700
C991        C  0.93150585  0.31714551  0.87691310     0.01600
C992        C  0.91991713  0.32927672  0.86247539    -0.23900
H993        H  0.81324799  0.44293986  0.89870388     0.09600
H994        H  0.85581564  0.40345218  0.90086928     0.13200
H995        H  0.81210594  0.43238637  0.84823130     0.11900
H996        H  0.85103695  0.39665652  0.83537864     0.13100
H997        H  0.89371995  0.35510807  0.83659166     0.12100
H998        H  0.88946590  0.36541449  0.90199808     0.09200
H999        H  0.92872934  0.32246758  0.90224420     0.12500
H1000       H  0.92872164  0.31876594  0.85153591     0.14300
C1001       C  0.41786346  0.50172740  0.03729407    -0.01200
C1002       C  0.38885853  0.51923549  0.03476031    -0.09200
C1003       C  0.36345856  0.51813162  0.04573218    -0.18000
C1004       C  0.36676550  0.50009310  0.05986284     0.04400
C1005       C  0.39687681  0.48361527  0.06264320     0.18600
C1006       C  0.42158414  0.48381594  0.05122263    -0.19400
C1007       C  0.40233337  0.46728483  0.07687379    -0.20700
C1008       C  0.37858965  0.46728623  0.08856247    -0.19200
C1009       C  0.34835063  0.48248155  0.08603310     0.20000
C1010       C  0.34163024  0.49835056  0.07148974     0.02100
C1011       C  0.30996417  0.51144466  0.06918388    -0.14000
C1012       C  0.28641175  0.50983050  0.08105243    -0.11700
C1013       C  0.29367183  0.49556463  0.09567751     0.01600
C1014       C  0.32475474  0.48182126  0.09800737    -0.23900
H1015       H  0.38575572  0.53358073  0.02413353     0.09600
H1016       H  0.34189306  0.53223404  0.04299904     0.13200
H1017       H  0.44400233  0.47019046  0.05321016     0.11900
H1018       H  0.42536160  0.45492066  0.07909251     0.13100
H1019       H  0.38376128  0.45494656  0.09958709     0.12100
H1020       H  0.30245905  0.52251688  0.05823830     0.09200
H1021       H  0.26228363  0.51967100  0.07868837     0.12500
H1022       H  0.33086856  0.47089966  0.10926653     0.14300
C1023       C  0.58796442  0.50444561  0.03978710    -0.01200
C1024       C  0.59712604  0.53518899  0.04553636    -0.09200
C1025       C  0.62023922  0.53813831  0.05761423    -0.18000
C1026       C  0.63559526  0.51021708  0.06413552     0.04400
C1027       C  0.62689949  0.47908379  0.05789469     0.18600
C1028       C  0.60286396  0.47645034  0.04605652    -0.19400
C1029       C  0.64250867  0.45081186  0.06337736    -0.20700
C1030       C  0.66679289  0.45275463  0.07484950    -0.19200
C1031       C  0.67552334  0.48292471  0.08143010     0.20000
C1032       C  0.65968163  0.51207055  0.07638043     0.02100
C1033       C  0.66858009  0.54171809  0.08387124    -0.14000
C1034       C  0.69277998  0.54244446  0.09553381    -0.11700
C1035       C  0.70881065  0.51376743  0.10020744     0.01600
C1036       C  0.69992752  0.48406029  0.09312074    -0.23900
H1037       H  0.58607272  0.55707896  0.04069867     0.09600
H1038       H  0.62599223  0.56263747  0.06138471     0.13200
H1039       H  0.59595784  0.45261339  0.04153115     0.11900
H1040       H  0.63617597  0.42703670  0.05861234     0.13100
H1041       H  0.67867462  0.43043258  0.07868979     0.12100
H1042       H  0.65696802  0.56468867  0.08114450     0.09200
H1043       H  0.69857502  0.56552484  0.10116244     0.12500
H1044       H  0.71211547  0.46171255  0.09671435     0.14300
C1045       C  0.42115692  0.48938414  0.95574881    -0.01200
C1046       C  0.41812127  0.46108587  0.94661622    -0.09200
C1047       C  0.39423035  0.45896061  0.93485093    -0.18000
C1048       C  0.37277575  0.48542957  0.93181168     0.04400
C1049       C  0.37666146  0.51437143  0.94096481     0.18600
C1050       C  0.40042037  0.51591066  0.95290841    -0.19400
C1051       C  0.35696383  0.54171048  0.93810001    -0.20700
C1052       C  0.33345119  0.54108339  0.92627875    -0.19200
C1053       C  0.32854377  0.51285987  0.91727011     0.20000
C1054       C  0.34777302  0.48440211  0.92000597     0.02100
C1055       C  0.34070823  0.45612777  0.91096725    -0.14000
C1056       C  0.31565702  0.45628237  0.89972072    -0.11700
C1057       C  0.29737422  0.48465493  0.89694546     0.01600
C1058       C  0.30407539  0.51286063  0.90567279    -0.23900
H1059       H  0.43430540  0.44052277  0.94865233     0.09600
H1060       H  0.39342069  0.43648160  0.92822936     0.13200
H1061       H  0.40313202  0.53792611  0.95993026     0.11900
H1062       H  0.35991976  0.56384961  0.94498795     0.13100
H1063       H  0.31872147  0.56274669  0.92428745     0.12100
H1064       H  0.35368412  0.43340557  0.91250172     0.09200
H1065       H  0.31062564  0.43419004  0.89308705     0.12500
H1066       H  0.28950883  0.53466480  0.90369496     0.14300
C1067       C  0.59102237  0.49187643  0.95819799    -0.01200
C1068       C  0.60470080  0.52148089  0.95337881    -0.09200
C1069       C  0.62751841  0.52226032  0.94118876    -0.18000
C1070       C  0.63736500  0.49314434  0.93350183     0.04400
C1071       C  0.62385815  0.46304093  0.93884083     0.18600
C1072       C  0.60065530  0.46271913  0.95100636    -0.19400
C1073       C  0.63351156  0.43346859  0.93198771    -0.20700
C1074       C  0.65652326  0.43303538  0.91995297    -0.19200
C1075       C  0.66996345  0.46220829  0.91429103     0.20000
C1076       C  0.66026732  0.49274644  0.92081751     0.02100
C1077       C  0.67385120  0.52151324  0.91430906    -0.14000
C1078       C  0.69679777  0.51989985  0.90218472    -0.11700
C1079       C  0.70684706  0.48969728  0.89604052     0.01600
C1080       C  0.69308311  0.46096671  0.90209274    -0.23900
H1081       H  0.59717358  0.54416098  0.95890783     0.09600
H1082       H  0.63699397  0.54598189  0.93811007     0.13200
H1083       H  0.58978239  0.43986431  0.95482655     0.11900
H1084       H  0.62336502  0.41047928  0.93604297     0.13100
H1085       H  0.66375351  0.40970241  0.91498472     0.12100
H1086       H  0.66729878  0.54565034  0.91830069     0.09200
H1087       H  0.70717735  0.54249479  0.89779680     0.12500
H1088       H  0.70014741  0.43752246  0.89718217     0.14300
C1089       C  0.56750496  0.17703738  0.62399963    -0.01200
C1090       C  0.58799504  0.17404982  0.61087260    -0.09200
C1091       C  0.61157121  0.14934774  0.61013787    -0.18000
C1092       C  0.61507145  0.12638126  0.62250337     0.04400
C1093       C  0.59416582  0.12957516  0.63580294     0.18600
C1094       C  0.57073019  0.15472486  0.63643201    -0.19400
C1095       C  0.59701816  0.10785129  0.64846977    -0.20700
C1096       C  0.62113897  0.08380442  0.64850895    -0.19200
C1097       C  0.64243686  0.08026975  0.63568127     0.20000
C1098       C  0.63891656  0.10076278  0.62228860     0.02100
C1099       C  0.65919636  0.09449210  0.60919687    -0.14000
C1100       C  0.68267050  0.06972708  0.60956110    -0.11700
C1101       C  0.68804513  0.05075972  0.62317198     0.01600
C1102       C  0.66727087  0.05634932  0.63619687    -0.23900
H1103       H  0.58614909  0.19127160  0.60121612     0.09600
H1104       H  0.62699823  0.14921914  0.59984656     0.13200
H1105       H  0.55478742  0.15682271  0.64659798     0.11900
H1106       H  0.58091690  0.10989827  0.65857084     0.13100
H1107       H  0.62312435  0.06782899  0.65864928     0.12100
H1108       H  0.65699363  0.10778727  0.59829138     0.09200
H1109       H  0.69616281  0.06544423  0.59882358     0.12500
H1110       H  0.67033374  0.04261206  0.64696574     0.14300
C1111       C  0.29072692  0.06978856  0.63578201    -0.01200
C1112       C  0.28720425  0.09841346  0.62674340    -0.09200
C1113       C  0.31289806  0.12057807  0.62512009    -0.18000
C1114       C  0.34277292  0.11587810  0.63313875     0.04400
C1115       C  0.34531533  0.08894393  0.64356680     0.18600
C1116       C  0.32013531  0.06557532  0.64428563    -0.19400
C1117       C  0.37292474  0.08565606  0.65326304    -0.20700
C1118       C  0.39790698  0.10883118  0.65284326    -0.19200
C1119       C  0.39694757  0.13446624  0.64192134     0.20000
C1120       C  0.36988372  0.13750158  0.63148145     0.02100
C1121       C  0.37151856  0.16134827  0.61948106    -0.14000
C1122       C  0.39839918  0.18219185  0.61830249    -0.11700
C1123       C  0.42400259  0.18056063  0.62924991     0.01600
C1124       C  0.42313856  0.15672341  0.64109879    -0.23900
H1125       H  0.26448352  0.10416251  0.62082592     0.09600
H1126       H  0.30828805  0.14188723  0.61796546     0.13200
H1127       H  0.32406794  0.04398272  0.65137760     0.11900
H1128       H  0.37486042  0.06546018  0.66147363     0.13100
H1129       H  0.41856839  0.10611060  0.66076211     0.12100
H1130       H  0.35283316  0.16373385  0.61055823     0.09200
H1131       H  0.39883953  0.20019225  0.60894252     0.12500
H1132       H  0.44331700  0.15491244  0.64937282     0.14300
C1133       C  0.92305893  0.99482971  0.45902464    -0.01200
C1134       C  0.92983104  0.01182996  0.44505699    -0.09200
C1135       C  0.90725745  0.01244830  0.43265914    -0.18000
C1136       C  0.87647312  0.99683008  0.43401578     0.04400
C1137       C  0.86944109  0.98021877  0.44833033     0.18600
C1138       C  0.89308703  0.97828713  0.46033995    -0.19400
C1139       C  0.83852557  0.96635687  0.45075420    -0.20700
C1140       C  0.81421767  0.96901687  0.43933425    -0.19200
C1141       C  0.82064738  0.98434017  0.42491101     0.20000
C1142       C  0.85211192  0.99773926  0.42187832     0.02100
C1143       C  0.85787381  0.01109520  0.40677595    -0.14000
C1144       C  0.83332130  0.01149323  0.39527124    -0.11700
C1145       C  0.80183659  0.99927419  0.39841307     0.01600
C1146       C  0.79580254  0.98600478  0.41343980    -0.23900
H1147       H  0.95263373  0.02511431  0.44380419     0.09600
H1148       H  0.91411679  0.02634696  0.42239502     0.13200
H1149       H  0.88772413  0.96476458  0.47101673     0.11900
H1150       H  0.83286493  0.95398043  0.46170880     0.13100
H1151       H  0.79034488  0.95854712  0.44170972     0.12100
H1152       H  0.88143255  0.02058069  0.40334022     0.09200
H1153       H  0.83944090  0.02091809  0.38373551     0.12500
H1154       H  0.77165173  0.97687242  0.41633275     0.14300
C1155       C  0.91499359  0.00372221  0.54121487    -0.01200
C1156       C  0.90775069  0.03285404  0.54904662    -0.09200
C1157       C  0.88413304  0.03359328  0.56091071    -0.18000
C1158       C  0.86708383  0.00490554  0.56535769     0.04400
C1159       C  0.87456087  0.97536268  0.55723272     0.18600
C1160       C  0.89836964  0.97504623  0.54528034    -0.19400
C1161       C  0.85819134  0.94637675  0.56106457    -0.20700
C1162       C  0.83398516  0.94617928  0.57258278    -0.19200
C1163       C  0.82577389  0.97489888  0.58066373     0.20000
C1164       C  0.84259237  0.00456434  0.57738359     0.02100
C1165       C  0.83396835  0.03263159  0.58622392    -0.14000
C1166       C  0.80885767  0.03158072  0.59735961    -0.11700
C1167       C  0.79167943  0.00258922  0.60019956     0.01600
C1168       C  0.80059550  0.97419834  0.59193803    -0.23900
H1169       H  0.92064016  0.05512295  0.54600221     0.09600
H1170       H  0.87975711  0.05701862  0.56631657     0.13200
H1171       H  0.90429798  0.95245168  0.53921616     0.11900
H1172       H  0.86389280  0.92376239  0.55498382     0.13100
H1173       H  0.82146609  0.92341952  0.57513060     0.12100
H1174       H  0.84614823  0.05580510  0.58484429     0.09200
H1175       H  0.80306757  0.05355667  0.60392589     0.12500
H1176       H  0.78749366  0.95158044  0.59410825     0.14300
C1177       C  0.08493500  0.00957337  0.54506636    -0.01200
C1178       C  0.11088813  0.98726822  0.54549254    -0.09200
C1179       C  0.13357766  0.98790283  0.55779464    -0.18000
C1180       C  0.13076949  0.01087900  0.57020715     0.04400
C1181       C  0.10421006  0.03338298  0.56969449     0.18600
C1182       C  0.08189543  0.03276322  0.55710944    -0.19400
C1183       C  0.09979215  0.05610299  0.58184274    -0.20700
C1184       C  0.12108658  0.05688171  0.59461945    -0.19200
C1185       C  0.14755392  0.03521924  0.59546115     0.20000
C1186       C  0.15301268  0.01206775  0.58320067     0.02100
C1187       C  0.18050100  0.99113562  0.58451485    -0.14000
C1188       C  0.20119412  0.99272069  0.59758222    -0.11700
C1189       C  0.19535066  0.01525799  0.60960518     0.01600
C1190       C  0.16872111  0.03660801  0.60849833    -0.23900
H1191       H  0.11338888  0.96902601  0.53630273     0.09600
H1192       H  0.15268596  0.96977244  0.55735030     0.13200
H1193       H  0.06173886  0.05002641  0.55675667     0.11900
H1194       H  0.07953024  0.07321857  0.58153011     0.13100
H1195       H  0.11684686  0.07459874  0.60390445     0.12100
H1196       H  0.18682002  0.97340967  0.57563188     0.09200
H1197       H  0.22212702  0.97649018  0.59824929     0.12500
H1198       H  0.16454729  0.05428365  0.61782382     0.14300
C1199       C  0.09168039  0.99870995  0.46332359    -0.01200
C1200       C  0.12090904  0.98149260  0.46568805    -0.09200
C1201       C  0.14536300  0.98158204  0.45422353    -0.18000
C1202       C  0.14083973  0.99827721  0.43979003     0.04400
C1203       C  0.11048346  0.01438557  0.43719687     0.18600
C1204       C  0.08678441  0.01532092  0.44909362    -0.19400
C1205       C  0.10373198  0.02903816  0.42266426    -0.20700
C1206       C  0.12649105  0.02778493  0.41053503    -0.19200
C1207       C  0.15713249  0.01330675  0.41293855     0.20000
C1208       C  0.16507387  0.99913082  0.42773325     0.02100
C1209       C  0.19717878  0.98723567  0.42995883    -0.14000
C1210       C  0.22028872  0.98906781  0.41793424    -0.11700
C1211       C  0.21200462  0.00163996  0.40305032     0.01600
C1212       C  0.18008035  0.01342172  0.40067458    -0.23900
H1213       H  0.12478446  0.96784790  0.47646781     0.09600
H1214       H  0.16707711  0.96757095  0.45679598     0.13200
H1215       H  0.06405391  0.02847390  0.44718571     0.11900
H1216       H  0.08046363  0.04104324  0.42057447     0.13100
H1217       H  0.12036986  0.03888527  0.39931690     0.12100
H1218       H  0.20555708  0.97753066  0.44105924     0.09200
H1219       H  0.24494600  0.98104657  0.42053915     0.12500
H1220       H  0.17283836  0.02280447  0.38926040     0.14300
C1221       C  0.42412157  0.31801612  0.62813036    -0.01200
C1222       C  0.39490083  0.31181970  0.62007417    -0.09200
C1223       C  0.36957641  0.33472993  0.62012438    -0.18000
C1224       C  0.37323651  0.36515349  0.62788545     0.04400
C1225       C  0.40341998  0.37157078  0.63568896     0.18600
C1226       C  0.42806634  0.34759201  0.63619575    -0.19400
C1227       C  0.40921630  0.40224828  0.64246415    -0.20700
C1228       C  0.38593639  0.42699034  0.64134595    -0.19200
C1229       C  0.35566592  0.42117397  0.63408756     0.20000
C1230       C  0.34850343  0.38983884  0.62770960     0.02100
C1231       C  0.31682667  0.38450897  0.62151560    -0.14000
C1232       C  0.29368128  0.40957085  0.62112999    -0.11700
C1233       C  0.30126003  0.44100878  0.62665764     0.01600
C1234       C  0.33243643  0.44650242  0.63320694    -0.23900
H1235       H  0.39162734  0.28903122  0.61373374     0.09600
H1236       H  0.34794123  0.32840574  0.61350683     0.13200
H1237       H  0.45097721  0.35251116  0.64223058     0.11900
H1238       H  0.43227075  0.40742289  0.64829837     0.13100
H1239       H  0.39150808  0.45074019  0.64635435     0.12100
H1240       H  0.30892207  0.36100097  0.61720429     0.09200
H1241       H  0.26950816  0.40406622  0.61659673     0.12500
H1242       H  0.33889333  0.47061087  0.63751064     0.14300
C1243       C  0.68893080  0.44596610  0.61824101    -0.01200
C1244       C  0.69594366  0.41497258  0.61196179    -0.09200
C1245       C  0.67288341  0.38972508  0.61243122    -0.18000
C1246       C  0.64178761  0.39437401  0.61940627     0.04400
C1247       C  0.63471214  0.42570321  0.62583943     0.18600
C1248       C  0.65795141  0.45107603  0.62503992    -0.19400
C1249       C  0.60453208  0.43151972  0.63314616    -0.20700
C1250       C  0.58123177  0.40683396  0.63430823    -0.19200
C1251       C  0.58730896  0.37577720  0.62802020     0.20000
C1252       C  0.61755022  0.36910978  0.62032396     0.02100
C1253       C  0.62201623  0.33751422  0.61380648    -0.14000
C1254       C  0.59746578  0.31376954  0.61483835    -0.11700
C1255       C  0.56813259  0.32041950  0.62267561     0.01600
C1256       C  0.56320037  0.35134269  0.62931975    -0.23900
H1257       H  0.71976279  0.40978366  0.60696229     0.09600
H1258       H  0.68040201  0.36666902  0.60746482     0.13200
H1259       H  0.65176016  0.47492914  0.62974442     0.11900
H1260       H  0.59897765  0.45531133  0.63810934     0.13100
H1261       H  0.55819985  0.41212932  0.64011580     0.12100
H1262       H  0.64403838  0.33047012  0.60770548     0.09200
H1263       H  0.60158823  0.28987338  0.60967727     0.12500
H1264       H  0.54027418  0.35652170  0.63527073     0.14300
C1265       C  0.19744797  0.52869708  0.39168510    -0.01200
C1266       C  0.20659397  0.54293644  0.40607676    -0.09200
C1267       C  0.18510242  0.54354195  0.41881891    -0.18000
C1268       C  0.15366000  0.52934288  0.41772161     0.04400
C1269       C  0.14505816  0.51330561  0.40344569     0.18600
C1270       C  0.16653010  0.51376178  0.39053693    -0.19400
C1271       C  0.11514006  0.49678396  0.40216574    -0.20700
C1272       C  0.09356157  0.49582493  0.41481815    -0.19200
C1273       C  0.10086961  0.51237916  0.42883069     0.20000
C1274       C  0.13068409  0.53003555  0.43036419     0.02100
C1275       C  0.13592734  0.54811242  0.44437167    -0.14000
C1276       C  0.11296447  0.54777485  0.45652836    -0.11700
C1277       C  0.08434087  0.52922679  0.45519688     0.01600
C1278       C  0.07840144  0.51161600  0.44130860    -0.23900
H1279       H  0.23074751  0.55335457  0.40764938     0.09600
H1280       H  0.19414702  0.55459819  0.42950201     0.13200
H1281       H  0.15888640  0.50263767  0.37953916     0.11900
H1282       H  0.10856301  0.48418025  0.39137389     0.13100
H1283       H  0.07077201  0.48248079  0.41354870     0.12100
H1284       H  0.15718901  0.56327962  0.44615655     0.09200
H1285       H  0.11756318  0.56202354  0.46707110     0.12500
H1286       H  0.05605225  0.49744860  0.44021915     0.14300
C1287       C  0.20876193  0.49607621  0.59804386    -0.01200
C1288       C  0.20479273  0.52577331  0.59010068    -0.09200
C1289       C  0.18334110  0.52837878  0.57736132    -0.18000
C1290       C  0.16465819  0.50123666  0.57223470     0.04400
C1291       C  0.16951280  0.47084551  0.58005044     0.18600
C1292       C  0.19148986  0.46851600  0.59278083    -0.19400
C1293       C  0.15205152  0.44309522  0.57526224    -0.20700
C1294       C  0.12925137  0.44499371  0.56309999    -0.19200
C1295       C  0.12312877  0.47474587  0.55550153     0.20000
C1296       C  0.14096681  0.50327939  0.55984600     0.02100
C1297       C  0.13366961  0.53278455  0.55186006    -0.14000
C1298       C  0.10931418  0.53397883  0.54032203    -0.11700
C1299       C  0.09150448  0.50599889  0.53636254     0.01600
C1300       C  0.09871244  0.47633874  0.54381044    -0.23900
H1301       H  0.21852363  0.54715737  0.59374629     0.09600
H1302       H  0.18183062  0.55205036  0.57186165     0.13200
H1303       H  0.19457895  0.44540742  0.59886714     0.11900
H1304       H  0.15579010  0.41980995  0.58108559     0.13100
H1305       H  0.11588852  0.42313382  0.55979559     0.12100
H1306       H  0.14590595  0.55550461  0.55441915     0.09200
H1307       H  0.10388998  0.55705528  0.53462315     0.12500
H1308       H  0.08484863  0.45467337  0.54066539     0.14300
C1309       C  0.78924366  0.49828213  0.59419392    -0.01200
C1310       C  0.80119781  0.46898682  0.58777277    -0.09200
C1311       C  0.82695106  0.46899521  0.57690672    -0.18000
C1312       C  0.84195417  0.49850943  0.57207511     0.04400
C1313       C  0.82963793  0.52819728  0.57850390     0.18600
C1314       C  0.80353201  0.52783780  0.58931588    -0.19400
C1315       C  0.84353331  0.55815721  0.57417428    -0.20700
C1316       C  0.86926496  0.55938861  0.56348289    -0.19200
C1317       C  0.88181101  0.53070111  0.55683007     0.20000
C1318       C  0.86858761  0.49974428  0.56109250     0.02100
C1319       C  0.88257238  0.47152328  0.55409830    -0.14000
C1320       C  0.90803600  0.47411104  0.54313392    -0.11700
C1321       C  0.92023283  0.50474527  0.53877150     0.01600
C1322       C  0.90731721  0.53288171  0.54577224    -0.23900
H1323       H  0.79115467  0.44571539  0.59145577     0.09600
H1324       H  0.83474439  0.44544997  0.57261428     0.13200
H1325       H  0.79429434  0.55077163  0.59393220     0.11900
H1326       H  0.83437611  0.58086689  0.57907571     0.13100
H1327       H  0.87933761  0.58301649  0.56033375     0.12100
H1328       H  0.87423598  0.44715640  0.55676352     0.09200
H1329       H  0.91792634  0.45214220  0.53781273     0.12500
H1330       H  0.91693985  0.55658309  0.54239822     0.14300
C1331       C  0.79802099  0.52192238  0.39544191    -0.01200
C1332       C  0.82948192  0.50944745  0.39242210    -0.09200
C1333       C  0.85408895  0.51048963  0.40388806    -0.18000
C1334       C  0.84835614  0.52466919  0.41882950     0.04400
C1335       C  0.81745214  0.53962863  0.42145102     0.18600
C1336       C  0.79258416  0.53757383  0.40999460    -0.19400
C1337       C  0.81136959  0.55621699  0.43559772    -0.20700
C1338       C  0.83515362  0.55777680  0.44732923    -0.19200
C1339       C  0.86518002  0.54175570  0.44546765     0.20000
C1340       C  0.87208022  0.52457183  0.43126057     0.02100
C1341       C  0.90192997  0.50715353  0.43033925    -0.14000
C1342       C  0.92405952  0.50720786  0.44290057    -0.11700
C1343       C  0.91766754  0.52511122  0.45666205     0.01600
C1344       C  0.88816601  0.54241955  0.45783742    -0.23900
H1345       H  0.83533178  0.49873287  0.38110540     0.09600
H1346       H  0.87751114  0.50035983  0.40064387     0.13200
H1347       H  0.76866807  0.54749835  0.41271571     0.11900
H1348       H  0.78803253  0.56813455  0.43760125     0.13100
H1349       H  0.82968584  0.57091665  0.45810842     0.12100
H1350       H  0.90849431  0.49261729  0.42022089     0.09200
H1351       H  0.94654963  0.49331346  0.44183809     0.12500
H1352       H  0.88305962  0.55624530  0.46846560     0.14300
C1353       C  0.24822626  0.66589752  0.70779925    -0.01200
C1354       C  0.27807380  0.65811446  0.70072515    -0.09200
C1355       C  0.27953157  0.63500335  0.68865863    -0.18000
C1356       C  0.25100330  0.61845740  0.68348513     0.04400
C1357       C  0.22071277  0.62656697  0.69078182     0.18600
C1358       C  0.21959172  0.65023059  0.70277144    -0.19400
C1359       C  0.19181972  0.61078523  0.68618458    -0.20700
C1360       C  0.19232179  0.58689686  0.67451057    -0.19200
C1361       C  0.22174832  0.57813978  0.66718020     0.20000
C1362       C  0.25151755  0.59386299  0.67152491     0.02100
C1363       C  0.28058901  0.58396654  0.66383596    -0.14000
C1364       C  0.28021005  0.55914237  0.65258157    -0.11700
C1365       C  0.25095246  0.54357294  0.64843310     0.01600
C1366       C  0.22168764  0.55343972  0.65563564    -0.23900
H1367       H  0.30038209  0.67000783  0.70460806     0.09600
H1368       H  0.30341815  0.63047326  0.68376401     0.13200
H1369       H  0.19651849  0.65622401  0.70840219     0.11900
H1370       H  0.16868281  0.61683895  0.69171893     0.13100
H1371       H  0.16955856  0.57501295  0.67127199     0.12100
H1372       H  0.30411006  0.59473544  0.66628206     0.09200
H1373       H  0.30298922  0.55223750  0.64694834     0.12500
H1374       H  0.19895499  0.54138201  0.65246853     0.14300
C1375       C  0.24423029  0.65514743  0.78973218    -0.01200
C1376       C  0.27307981  0.63765854  0.79247368    -0.09200
C1377       C  0.27381941  0.61247228  0.80357966    -0.18000
C1378       C  0.24549742  0.60413297  0.81233302     0.04400
C1379       C  0.21601066  0.62134221  0.80899833     0.18600
C1380       C  0.21571479  0.64670010  0.79785929    -0.19400
C1381       C  0.18704515  0.61336541  0.81689980    -0.20700
C1382       C  0.18682467  0.58919843  0.82840512    -0.19200
C1383       C  0.21566208  0.57269350  0.83244068     0.20000
C1384       C  0.24540023  0.57974139  0.82440007     0.02100
C1385       C  0.27387440  0.56262767  0.82907491    -0.14000
C1386       C  0.27294330  0.53996674  0.84134657    -0.11700
C1387       C  0.24371822  0.53336479  0.84937817     0.01600
C1388       C  0.21504215  0.54959330  0.84470527    -0.23900
H1389       H  0.29516106  0.64369888  0.78603392     0.09600
H1390       H  0.29690142  0.60008592  0.80504798     0.13200
H1391       H  0.19329505  0.66006385  0.79550052     0.11900
H1392       H  0.16443063  0.62612941  0.81426233     0.13100
H1393       H  0.16403330  0.58380672  0.83440088     0.12100
H1394       H  0.29737495  0.56646218  0.82363032     0.09200
H1395       H  0.29531330  0.52731461  0.84449662     0.12500
H1396       H  0.19232632  0.54488586  0.85090706     0.14300
C1397       C  0.23594853  0.82562927  0.79465659    -0.01200
C1398       C  0.20632720  0.83868654  0.79994563    -0.09200
C1399       C  0.20588962  0.86224513  0.81186023    -0.18000
C1400       C  0.23533100  0.87336808  0.81890144     0.04400
C1401       C  0.26535629  0.86003423  0.81333176     0.18600
C1402       C  0.26537724  0.83637143  0.80133103    -0.19400
C1403       C  0.29519252  0.87060385  0.81966376    -0.20700
C1404       C  0.29597127  0.89455733  0.83129230    -0.19200
C1405       C  0.26690832  0.90822194  0.83703458     0.20000
C1406       C  0.23613085  0.89748184  0.83110119     0.02100
C1407       C  0.20752213  0.91130305  0.83768202    -0.14000
C1408       C  0.20943650  0.93525142  0.84935210    -0.11700
C1409       C  0.23980282  0.94653496  0.85485730     0.01600
C1410       C  0.26847894  0.93266005  0.84867819    -0.23900
H1411       H  0.18345399  0.83079736  0.79469363     0.09600
H1412       H  0.18216316  0.87148639  0.81515361     0.13200
H1413       H  0.28830921  0.82635593  0.79705553     0.11900
H1414       H  0.31813382  0.86048912  0.81548227     0.13100
H1415       H  0.31950154  0.90243466  0.83584018     0.12100
H1416       H  0.18324679  0.90394132  0.83419410     0.09200
H1417       H  0.18684964  0.94475916  0.85422525     0.12500
H1418       H  0.29214756  0.94119642  0.85275606     0.14300
C1419       C  0.24296990  0.83581093  0.71324475    -0.01200
C1420       C  0.27235579  0.85198304  0.71009176    -0.09200
C1421       C  0.27305330  0.87836153  0.69967819    -0.18000
C1422       C  0.24407377  0.88941873  0.69221090     0.04400
C1423       C  0.21412080  0.87356475  0.69604944     0.18600
C1424       C  0.21393857  0.84664097  0.70627021    -0.19400
C1425       C  0.18449631  0.88494810  0.68983991    -0.20700
C1426       C  0.18392204  0.91181248  0.67982973    -0.19200
C1427       C  0.21307486  0.92716629  0.67533218     0.20000
C1428       C  0.24363714  0.91584298  0.68123924     0.02100
C1429       C  0.27245683  0.93095837  0.67561725    -0.14000
C1430       C  0.27091644  0.95657209  0.66480626    -0.11700
C1431       C  0.24071031  0.96830952  0.65933673     0.01600
C1432       C  0.21185724  0.95347115  0.66472625    -0.23900
H1433       H  0.29479226  0.84421769  0.71579827     0.09600
H1434       H  0.29645689  0.89000213  0.69797519     0.13200
H1435       H  0.19112285  0.83439548  0.70908763     0.11900
H1436       H  0.16156516  0.87319368  0.69287440     0.13100
H1437       H  0.16055042  0.92024762  0.67533155     0.12100
H1438       H  0.29659932  0.92293274  0.67899652     0.09200
H1439       H  0.29363696  0.96678747  0.66044655     0.12500
H1440       H  0.18833165  0.96228914  0.66059487     0.14300
C1441       C  0.75640081  0.53697996  0.84756531    -0.01200
C1442       C  0.78430053  0.55609657  0.84515122    -0.09200
C1443       C  0.78397723  0.58149108  0.83421579    -0.18000
C1444       C  0.75556923  0.58836268  0.82523420     0.04400
C1445       C  0.72747393  0.56841962  0.82760530     0.18600
C1446       C  0.72810107  0.54315552  0.83874893    -0.19400
C1447       C  0.69894062  0.57374789  0.81883234    -0.20700
C1448       C  0.69779780  0.59824803  0.80751473    -0.19200
C1449       C  0.72508235  0.61814320  0.80479952     0.20000
C1450       C  0.75418865  0.61391054  0.81382465     0.02100
C1451       C  0.78073077  0.63530331  0.81093632    -0.14000
C1452       C  0.77890230  0.65890312  0.79915370    -0.11700
C1453       C  0.75066585  0.66207275  0.78999851     0.01600
C1454       C  0.72362165  0.64206894  0.79296845    -0.23900
H1455       H  0.80629276  0.55176521  0.85199640     0.09600
H1456       H  0.80639670  0.59513218  0.83305357     0.13200
H1457       H  0.70655535  0.52810307  0.84055325     0.11900
H1458       H  0.67745260  0.55864448  0.82062894     0.13100
H1459       H  0.67548006  0.60153545  0.80077266     0.12100
H1460       H  0.80327898  0.63442629  0.81751175     0.09200
H1461       H  0.79975088  0.67469883  0.79706104     0.12500
H1462       H  0.70160483  0.64503957  0.78595210     0.14300
C1463       C  0.75340640  0.65698817  0.70767662    -0.01200
C1464       C  0.78235753  0.64208112  0.70260907    -0.09200
C1465       C  0.78172004  0.61830772  0.69074469    -0.18000
C1466       C  0.75188257  0.60892683  0.68348076     0.04400
C1467       C  0.72257131  0.62406542  0.68886772     0.18600
C1468       C  0.72360614  0.64772386  0.70087169    -0.19400
C1469       C  0.69239446  0.61579455  0.68213337    -0.20700
C1470       C  0.69059984  0.59297410  0.67001506    -0.19200
C1471       C  0.71895197  0.57788151  0.66428070     0.20000
C1472       C  0.75002160  0.58546955  0.67096547     0.02100
C1473       C  0.77783433  0.56949756  0.66468501    -0.14000
C1474       C  0.77495317  0.54751194  0.65214486    -0.11700
C1475       C  0.74436628  0.54048712  0.64543044     0.01600
C1476       C  0.71640773  0.55553545  0.65172343    -0.23900
H1477       H  0.80557939  0.64909561  0.70779140     0.09600
H1478       H  0.80498952  0.60798154  0.68743453     0.13200
H1479       H  0.70122710  0.65944198  0.70480890     0.11900
H1480       H  0.66999482  0.62722946  0.68620565     0.13100
H1481       H  0.66684842  0.58728019  0.66499974     0.12100
H1482       H  0.80220833  0.57357412  0.66913797     0.09200
H1483       H  0.79687633  0.53575710  0.64773013     0.12500
H1484       H  0.69263359  0.55045398  0.64656637     0.14300
C1485       C  0.75379791  0.82784214  0.70612939    -0.01200
C1486       C  0.78213925  0.84460720  0.70172416    -0.09200
C1487       C  0.78083974  0.86915218  0.69034232    -0.18000
C1488       C  0.75100879  0.87721778  0.68274169     0.04400
C1489       C  0.72240207  0.85961638  0.68712020     0.18600
C1490       C  0.72403987  0.83528336  0.69875640    -0.19400
C1491       C  0.69231856  0.86651903  0.67992997    -0.20700
C1492       C  0.68987969  0.89084616  0.66854838    -0.19200
C1493       C  0.71751228  0.90871627  0.66399446     0.20000
C1494       C  0.74852895  0.90202530  0.67096657     0.02100
C1495       C  0.77575522  0.92038850  0.66579764    -0.14000
C1496       C  0.77235526  0.94420786  0.65421675    -0.11700
C1497       C  0.74185521  0.95067051  0.64730791     0.01600
C1498       C  0.71440333  0.93303410  0.65236713    -0.23900
H1499       H  0.80532355  0.83893212  0.70731163     0.09600
H1500       H  0.80361775  0.88130386  0.68780570     0.13200
H1501       H  0.70213774  0.82205366  0.70215462     0.11900
H1502       H  0.67047059  0.85307987  0.68317920     0.13100
H1503       H  0.66621069  0.89566389  0.66324196     0.12100
H1504       H  0.80009368  0.91694178  0.67039705     0.09200
H1505       H  0.79386430  0.95786149  0.65068405     0.12500
H1506       H  0.69076355  0.93770076  0.64698856     0.14300
C1507       C  0.75354350  0.83154291  0.78810268    -0.01200
C1508       C  0.72486008  0.84898541  0.79120344    -0.09200
C1509       C  0.72432065  0.87320845  0.80281182    -0.18000
C1510       C  0.75276524  0.88077567  0.81165560     0.04400
C1511       C  0.78195970  0.86312253  0.80822076     0.18600
C1512       C  0.78201954  0.83863890  0.79659820    -0.19400
C1513       C  0.81091305  0.86996201  0.81641170    -0.20700
C1514       C  0.81162185  0.89403855  0.82797104    -0.19200
C1515       C  0.78326964  0.91152242  0.83180796     0.20000
C1516       C  0.75333333  0.90506496  0.82379194     0.02100
C1517       C  0.72523080  0.92285626  0.82847392    -0.14000
C1518       C  0.72675287  0.94557364  0.84075424    -0.11700
C1519       C  0.75629260  0.95170335  0.84859854     0.01600
C1520       C  0.78456189  0.93497426  0.84389136    -0.23900
H1521       H  0.70269875  0.84361105  0.78466379     0.09600
H1522       H  0.70132193  0.88559845  0.80453126     0.13200
H1523       H  0.80420702  0.82499687  0.79411712     0.11900
H1524       H  0.83321715  0.85662296  0.81383662     0.13100
H1525       H  0.83445640  0.89875573  0.83409002     0.12100
H1526       H  0.70158267  0.91938299  0.82309228     0.09200
H1527       H  0.70465788  0.95839569  0.84418521     0.12500
H1528       H  0.80740962  0.93938217  0.85007168     0.14300
loop_ 
_geom_bond_atom_site_label_1 
_geom_bond_atom_site_label_2 
_geom_bond_distance 
_geom_bond_site_symmetry_2 
_ccdc_geom_bond_type 
N1            C6   1.354       .  A
N1            C5   1.352       .  A
N1           H33   1.038       .  S
N2            C9   1.353       .  A
N2           C10   1.353       .  A
N3            C8   1.353       .  A
N3            C7   1.354       .  A
N3           H34   1.036       .  S
N4           C11   1.351       .  A
N4           C12   1.350       .  A
C5           C13   1.389       .  A
C5           C21   1.419       .  A
C6           C22   1.415       .  A
C6           C14   1.385       .  A
C7           C15   1.387       .  A
C7           C24   1.418       .  A
C8           C23   1.418       .  A
C8           C16   1.388       .  A
C9           C21   1.417       .  A
C9           C17   1.387       .  A
C10          C24   1.417       .  A
C10          C18   1.386       .  A
C11          C19   1.386       .  A
C11          C22   1.412       .  A
C12          C20   1.387       .  A
C12          C23   1.413       .  A
C13          C14   1.374       .  A
C13          H25   1.081       .  S
C14          H26   1.082       .  S
C15          C16   1.375       .  A
C15          H27   1.082       .  S
C16          H28   1.082       .  S
C17          C18   1.371       .  A
C17          H29   1.082       .  S
C18          H30   1.082       .  S
C19          C20   1.370       .  A
C19          H31   1.082       .  S
C20          H32   1.082       .  S
C21        C1485   1.485       .  S
C22        C1507   1.483       .  S
C23        C1453   1.479       .  S
C24        C1463   1.488       .  S
N35          C40   1.352       .  A
N35          C39   1.352       .  A
N35          H67   1.038       .  S
N36          C43   1.350       .  A
N36          C44   1.351       .  A
N37          C42   1.353       .  A
N37          C41   1.354       .  A
N37          H68   1.038       .  S
N38          C45   1.352       .  A
N38          C46   1.352       .  A
C39          C47   1.387       .  A
C39          C55   1.415       .  A
C40          C56   1.416       .  A
C40          C48   1.388       .  A
C41          C49   1.387       .  A
C41          C58   1.418       .  A
C42          C57   1.418       .  A
C42          C50   1.387       .  A
C43          C55   1.412       .  A
C43          C51   1.386       .  A
C44          C58   1.414       .  A
C44          C52   1.387       .  A
C45          C53   1.387       .  A
C45          C56   1.415       .  A
C46          C54   1.386       .  A
C46          C57   1.415       .  A
C47          C48   1.374       .  A
C47          H59   1.082       .  S
C48          H60   1.082       .  S
C49          C50   1.375       .  A
C49          H61   1.082       .  S
C50          H62   1.082       .  S
C51          C52   1.370       .  A
C51          H63   1.082       .  S
C52          H64   1.082       .  S
C53          C54   1.370       .  A
C53          H65   1.082       .  S
C54          H66   1.082       .  S
C55        C1419   1.479       .  S
C56        C1353   1.483       .  S
C57        C1375   1.484       .  S
C58        C1397   1.483       .  S
N69          C74   1.352       .  A
N69          C73   1.353       .  A
N69         H101   1.040       .  S
N70          C77   1.349       .  A
N70          C78   1.350   1_455  A
N71          C76   1.353       .  A
N71          C75   1.357       .  A
N71         H102   1.039       .  S
N72          C79   1.353       .  A
N72          C80   1.353   1_455  A
C73          C81   1.388       .  A
C73          C89   1.415       .  A
C74          C90   1.411       .  A
C74          C82   1.386       .  A
C75          C83   1.387       .  A
C75          C92   1.420       .  A
C76          C91   1.417       .  A
C76          C84   1.387       .  A
C77          C89   1.410       .  A
C77          C85   1.386       .  A
C78          C92   1.411       .  A
C78          C86   1.386       .  A
C79          C87   1.386       .  A
C79          C90   1.414       .  A
C80          C88   1.387       .  A
C80          C91   1.415       .  A
C81          C82   1.377       .  A
C81          H93   1.082       .  S
C82          H94   1.082       .  S
C83          C84   1.377       .  A
C83          H95   1.082       .  S
C84          H96   1.082       .  S
C85          C86   1.372   1_455  A
C85          H97   1.082       .  S
C86          H98   1.082       .  S
C87          C88   1.375   1_455  A
C87          H99   1.082       .  S
C88         H100   1.082       .  S
C89        C1277   1.486       .  S
C90        C1299   1.484       .  S
C91        C1321   1.487       .  S
C92        C1343   1.495       .  S
C103        C104   1.405       .  A
C103        C108   1.405       .  A
C103       C1475   1.490       .  S
C104        C105   1.409       .  A
C104        H109   1.082       .  S
C105        C106   1.411       .  A
C105       C1243   1.498       .  S
C106        C107   1.409       .  A
C106        H110   1.082       .  S
C107        C108   1.406       .  A
C107       C1309   1.496       .  S
C108        H111   1.082       .  S
C112        C113   1.404       .  A
C112        C117   1.403       .  A
C112       C1287   1.482       .  S
C113        C114   1.402       .  A
C113        H118   1.084       .  S
C114        C115   1.405       .  A
C114       C1365   1.481       .  S
C115        C116   1.407       .  A
C115        H119   1.083       .  S
C116        C117   1.409       .  A
C116       C1233   1.492       .  S
C117        H120   1.083       .  S
N121        C126   1.353       .  A
N121        C125   1.352   1_445  A
N121        H153   1.038       .  S
N122        C129   1.352   1_565  A
N122        C130   1.353   1_565  A
N123        C128   1.352       .  A
N123        C127   1.354   1_455  A
N123        H154   1.040   1_565  S
N124        C131   1.350       .  A
N124        C132   1.350       .  A
C125        C133   1.387       .  A
C125        C141   1.412   1_565  A
C126        C142   1.415       .  A
C126        C134   1.387   1_545  A
C127        C135   1.387       .  A
C127        C144   1.416       .  A
C128        C143   1.415       .  A
C128        C136   1.388       .  A
C129        C141   1.411       .  A
C129        C137   1.384       .  A
C130        C144   1.417   1_545  A
C130        C138   1.387       .  A
C131        C139   1.385       .  A
C131        C142   1.411       .  A
C132        C140   1.387       .  A
C132        C143   1.412   1_545  A
C133        C134   1.375   1_655  A
C133        H145   1.082       .  S
C134        H146   1.082       .  S
C135        C136   1.376   1_655  A
C135        H147   1.082       .  S
C136        H148   1.082       .  S
C137        C138   1.373       .  A
C137        H149   1.082       .  S
C138        H150   1.082       .  S
C139        C140   1.373       .  A
C139        H151   1.082       .  S
C140        H152   1.082       .  S
C141       C1155   1.481       .  S
C142       C1177   1.486       .  S
C143       C1199   1.487       .  S
C144       C1133   1.498       .  S
C155        C156   1.397   1_545  A
C155        C160   1.397       .  A
C155       C1189   1.469       .  S
C156        C157   1.404       .  A
C156        H161   1.083       .  S
C157        C158   1.408   1_565  A
C157       C1431   1.487       .  S
C158        C159   1.411       .  A
C158        H162   1.080       .  S
C159        C160   1.410       .  A
C159       C1111   1.502       .  S
C160        H163   1.081       .  S
C164        C165   1.400       .  A
C164        C169   1.407       .  A
C164       C1497   1.483       .  S
C165        C166   1.395   1_565  A
C165        H170   1.084       .  S
C166        C167   1.405       .  A
C166       C1167   1.485       .  S
C167        C168   1.417       .  A
C167        H171   1.079       .  S
C168        C169   1.416   1_545  A
C168       C1101   1.512       .  S
C169        H172   1.079       .  S
N173        C178   1.355   1_556  A
N173        C177   1.351       .  A
N173        H205   1.038       .  S
N174        C181   1.348       .  A
N174        C182   1.351       .  A
N175        C180   1.351   1_556  A
N175        C179   1.354       .  A
N175        H206   1.040       .  S
N176        C183   1.353       .  A
N176        C184   1.350       .  A
C177        C185   1.386       .  A
C177        C193   1.414       .  A
C178        C194   1.418       .  A
C178        C186   1.388       .  A
C179        C187   1.384       .  A
C179        C196   1.410       .  A
C180        C195   1.415       .  A
C180        C188   1.389       .  A
C181        C193   1.411       .  A
C181        C189   1.388       .  A
C182        C196   1.407       .  A
C182        C190   1.384       .  A
C183        C191   1.386       .  A
C183        C194   1.416       .  A
C184        C192   1.386       .  A
C184        C195   1.415       .  A
C185        C186   1.377   1_556  A
C185        H197   1.082       .  S
C186        H198   1.081       .  S
C187        C188   1.375   1_556  A
C187        H199   1.082       .  S
C188        H200   1.082       .  S
C189        C190   1.372       .  A
C189        H201   1.082       .  S
C190        H202   1.082       .  S
C191        C192   1.373       .  A
C191        H203   1.081       .  S
C192        H204   1.082       .  S
C193       C1067   1.474       .  S
C194       C1023   1.492       .  S
C195       C1001   1.487       .  S
C196       C1045   1.483       .  S
C207        C208   1.401       .  A
C207        C212   1.405       .  A
C207       C1079   1.483       .  S
C208        C209   1.399       .  A
C208        H213   1.084       .  S
C209        C210   1.401       .  A
C209       C1441   1.473       .  S
C210        C211   1.404       .  A
C210        H214   1.083       .  S
C211        C212   1.408       .  A
C211        C979   1.486       .  S
C212        H215   1.083       .  S
C216        C217   1.402       .  A
C216        C221   1.399       .  A
C216       C1057   1.476       .  S
C217        C218   1.406       .  A
C217        H222   1.084       .  S
C218        C219   1.405       .  A
C218       C1387   1.487       .  S
C219        C220   1.407       .  A
C219        H223   1.083       .  S
C220        C221   1.403       .  A
C220        C957   1.482       .  S
C221        H224   1.084       .  S
N225        C230   1.355       .  A
N225        C229   1.356       .  A
N225        H257   1.039       .  S
N226        C233   1.353       .  A
N226        C234   1.352       .  A
N227        C232   1.352       .  A
N227        C231   1.353       .  A
N227        H258   1.035       .  S
N228        C235   1.352       .  A
N228        C236   1.353       .  A
C229        C237   1.386       .  A
C229        C245   1.416       .  A
C230        C246   1.420       .  A
C230        C238   1.388       .  A
C231        C239   1.388       .  A
C231        C248   1.416       .  A
C232        C247   1.415       .  A
C232        C240   1.387       .  A
C233        C245   1.414       .  A
C233        C241   1.385       .  A
C234        C248   1.417       .  A
C234        C242   1.387       .  A
C235        C243   1.388       .  A
C235        C246   1.418       .  A
C236        C244   1.385       .  A
C236        C247   1.413       .  A
C237        C238   1.376       .  A
C237        H249   1.082       .  S
C238        H250   1.082       .  S
C239        C240   1.375       .  A
C239        H251   1.082       .  S
C240        H252   1.083       .  S
C241        C242   1.374       .  A
C241        H253   1.082       .  S
C242        H254   1.082       .  S
C243        C244   1.372       .  A
C243        H255   1.082       .  S
C244        H256   1.082       .  S
C245        C947   1.490       .  S
C246        C903   1.496       .  S
C247        C869   1.481       .  S
C248        C913   1.483       .  S
N259        C264   1.354   1_554  A
N259        C263   1.352       .  A
N259        H291   1.037       .  S
N260        C267   1.352       .  A
N260        C268   1.354       .  A
N261        C266   1.353   1_554  A
N261        C265   1.356       .  A
N261        H292   1.036       .  S
N262        C269   1.353       .  A
N262        C270   1.351       .  A
C263        C271   1.389       .  A
C263        C279   1.418       .  A
C264        C280   1.416       .  A
C264        C272   1.386       .  A
C265        C273   1.386       .  A
C265        C282   1.419       .  A
C266        C281   1.419       .  A
C266        C274   1.388       .  A
C267        C279   1.418       .  A
C267        C275   1.388       .  A
C268        C282   1.417       .  A
C268        C276   1.385       .  A
C269        C277   1.385       .  A
C269        C280   1.415       .  A
C270        C278   1.388       .  A
C270        C281   1.416       .  A
C271        C272   1.374   1_554  A
C271        H283   1.082       .  S
C272        H284   1.082       .  S
C273        C274   1.374   1_554  A
C273        H285   1.082       .  S
C274        H286   1.082       .  S
C275        C276   1.371       .  A
C275        H287   1.082       .  S
C276        H288   1.082       .  S
C277        C278   1.373       .  A
C277        H289   1.082       .  S
C278        H290   1.082       .  S
C279        C803   1.481       .  S
C280        C847   1.487       .  S
C281        C837   1.480       .  S
C282        C781   1.494       .  S
C293        C294   1.404       .  A
C293        C298   1.406       .  A
C293       C1409   1.489       .  S
C294        C295   1.404   1_565  A
C294        H299   1.082   1_565  S
C295        C296   1.408       .  A
C295        C759   1.494       .  S
C296        C297   1.409   1_545  A
C296        H300   1.082       .  S
C297        C298   1.409       .  A
C297        C859   1.498       .  S
C298        H301   1.081       .  S
C302        C303   1.402   1_565  A
C302        C307   1.401       .  A
C302        C825   1.482       .  S
C303        C304   1.407       .  A
C303        H308   1.082       .  S
C304        C305   1.411   1_545  A
C304        C737   1.497       .  S
C305        C306   1.405       .  A
C305        H309   1.081   1_565  S
C306        C307   1.402       .  A
C306       C1519   1.481       .  S
C307        H310   1.083       .  S
N311        C316   1.352       .  A
N311        C315   1.351       .  A
N311        H343   1.038       .  S
N312        C319   1.349       .  A
N312        C320   1.350       .  A
N313        C318   1.350       .  A
N313        C317   1.354       .  A
N313        H344   1.039       .  S
N314        C321   1.351       .  A
N314        C322   1.349       .  A
C315        C323   1.387       .  A
C315        C331   1.412       .  A
C316        C332   1.413       .  A
C316        C324   1.387       .  A
C317        C325   1.388       .  A
C317        C334   1.415       .  A
C318        C333   1.410       .  A
C318        C326   1.386       .  A
C319        C331   1.410       .  A
C319        C327   1.386       .  A
C320        C334   1.412       .  A
C320        C328   1.386       .  A
C321        C329   1.387       .  A
C321        C332   1.411       .  A
C322        C330   1.386       .  A
C322        C333   1.410       .  A
C323        C324   1.376       .  A
C323        H335   1.082       .  S
C324        H336   1.082       .  S
C325        C326   1.374       .  A
C325        H337   1.082       .  S
C326        H338   1.083       .  S
C327        C328   1.373       .  A
C327        H339   1.082       .  S
C328        H340   1.082       .  S
C329        C330   1.372       .  A
C329        H341   1.082       .  S
C330        H342   1.082       .  S
C331        C727   1.477       .  S
C332        C693   1.480       .  S
C333        C649   1.474       .  S
C334        C683   1.489       .  S
C345        C346   1.407       .  A
C345        C350   1.404   1_545  A
C345        C671   1.490       .  S
C346        C347   1.406   1_545  A
C346        H351   1.082       .  S
C347        C348   1.404       .  A
C347        C815   1.485       .  S
C348        C349   1.401       .  A
C348        H352   1.083       .  S
C349        C350   1.401       .  A
C349        C639   1.478       .  S
C350        H353   1.083       .  S
C354        C355   1.403   1_565  A
C354        C359   1.401       .  A
C354        C793   1.484       .  S
C355        C356   1.411       .  A
C355        H360   1.081       .  S
C356        C357   1.413   1_545  A
C356        C891   1.504       .  S
C357        C358   1.408       .  A
C357        H361   1.081       .  S
C358        C359   1.408       .  A
C358        C605   1.493       .  S
C359        H362   1.083       .  S
C363        C364   1.405       .  A
C363        C368   1.404       .  A
C363        C881   1.491       .  S
C364        C365   1.412       .  A
C364        H369   1.080       .  S
C365        C366   1.414       .  A
C365        C583   1.504       .  S
C366        C367   1.405       .  A
C366        H370   1.081       .  S
C367        C368   1.400       .  A
C367       C1035   1.487       .  S
C368        H371   1.082       .  S
C372        C373   1.400       .  A
C372        C377   1.404       .  A
C372       C1013   1.487       .  S
C373        C374   1.401       .  A
C373        H378   1.083       .  S
C374        C375   1.403       .  A
C374        C561   1.483       .  S
C375        C376   1.410       .  A
C375        H379   1.081       .  S
C376        C377   1.408       .  A
C376        C661   1.494       .  S
C377        H380   1.081       .  S
C381        C382   1.405   1_545  A
C381        C386   1.405       .  A
C381       C1211   1.491       .  S
C382        C383   1.405       .  A
C382        H387   1.078       .  S
C383        C384   1.408   1_565  A
C383        C551   1.492       .  S
C384        C385   1.402       .  A
C384        H388   1.083       .  S
C385        C386   1.400       .  A
C385        C715   1.478       .  S
C386        H389   1.082       .  S
C390        C391   1.407       .  A
C390        C395   1.405       .  A
C390        C935   1.493       .  S
C391        C392   1.412   1_545  A
C391        H396   1.082       .  S
C392        C393   1.410       .  A
C392       C1145   1.502       .  S
C393        C394   1.407       .  A
C393        H397   1.081       .  S
C394        C395   1.408   1_565  A
C394        C517   1.496       .  S
C395        H398   1.082       .  S
C399        C400   1.407       .  A
C399        C404   1.401       .  A
C399        C925   1.489       .  S
C400        C401   1.415       .  A
C400        H405   1.082       .  S
C401        C402   1.413       .  A
C401       C1331   1.502       .  S
C402        C403   1.406       .  A
C402        H406   1.082       .  S
C403        C404   1.398       .  A
C403        C495   1.485       .  S
C404        H407   1.083       .  S
C408        C409   1.404       .  A
C408        C413   1.406       .  A
C408        C705   1.485       .  S
C409        C410   1.403       .  A
C409        H414   1.082       .  S
C410        C411   1.406       .  A
C410       C1265   1.491       .  S
C411        C412   1.407       .  A
C411        H415   1.082       .  S
C412        C413   1.405       .  A
C412        C473   1.491       .  S
C413        H416   1.082       .  S
O417       Cu425   1.988       .  S
O417        C427   1.275       .  A
O418       Cu425   1.990   1_655  S
O418        C428   1.276       .  A
O419       Cu425   2.006   1_655  S
O419        C429   1.279       .  A
O420       Cu425   2.010       .  S
O420        C430   1.280       .  A
O421       Cu426   2.004       .  S
O421        C430   1.277       .  A
O422       Cu426   2.010   1_655  S
O422        C429   1.278       .  A
O423       Cu426   2.016   1_655  S
O423        C428   1.279       .  A
O424       Cu426   2.012       .  S
O424        C427   1.279       .  A
Cu425      Cu426   2.372       .  S
C427        C627   1.475       .  S
C428        C595   1.471       .  S
C429        C617   1.482       .  S
C430        C573   1.480       .  S
O431       Cu439   2.007       .  S
O431        C441   1.278       .  A
O432       Cu439   2.015       .  S
O432        C442   1.279       .  A
O433       Cu439   2.013       .  S
O433        C443   1.279       .  A
O434       Cu439   2.012       .  S
O434        C444   1.278       .  A
O435       Cu440   2.022       .  S
O435        C444   1.280       .  A
O436       Cu440   2.010       .  S
O436        C443   1.279       .  A
O437       Cu440   1.993       .  S
O437        C442   1.277       .  A
O438       Cu440   1.989       .  S
O438        C441   1.274       .  A
Cu439      Cu440   2.371       .  S
C441        C539   1.463       .  S
C442        C507   1.480       .  S
C443        C485   1.484       .  S
C444        C529   1.488       .  S
O445       Cu453   2.013       .  S
O445        C455   1.278       .  A
O446       Cu453   2.017       .  S
O446        C456   1.278       .  A
O447       Cu453   2.011       .  S
O447        C457   1.277       .  A
O448       Cu453   2.012       .  S
O448        C458   1.278       .  A
O449       Cu454   2.009       .  S
O449        C458   1.278       .  A
O450       Cu454   2.007       .  S
O450        C457   1.278       .  A
O451       Cu454   2.013       .  S
O451        C456   1.278       .  A
O452       Cu454   2.003       .  S
O452        C455   1.278       .  A
Cu453      Cu454   2.376       .  S
C455       C1123   1.473       .  S
C456       C1255   1.472       .  S
C457       C1221   1.469       .  S
C458       C1089   1.477       .  S
O459       Cu467   2.011   1_455  S
O459        C469   1.279       .  A
O460       Cu467   2.003       .  S
O460        C470   1.278       .  A
O461       Cu467   2.010       .  S
O461        C471   1.278       .  A
O462       Cu467   2.003   1_455  S
O462        C472   1.277       .  A
O463       Cu468   2.011   1_455  S
O463        C472   1.278       .  A
O464       Cu468   2.002       .  S
O464        C471   1.278       .  A
O465       Cu468   2.006       .  S
O465        C470   1.277       .  A
O466       Cu468   1.995   1_455  S
O466        C469   1.277       .  A
Cu467      Cu468   2.374       .  S
C469        C969   1.478       .  S
C470        C749   1.470       .  S
C471        C991   1.480       .  S
C472        C771   1.468       .  S
C473        C474   1.403       .  A
C473        C478   1.403       .  A
C474        C475   1.400       .  A
C474        H487   1.083       .  S
C475        C476   1.416       .  A
C475        H488   1.077       .  S
C476        C482   1.432       .  A
C476        C477   1.421       .  A
C477        C479   1.399       .  A
C477        C478   1.401       .  A
C478        H489   1.084       .  S
C479        C480   1.387       .  A
C479        H490   1.084       .  S
C480        C481   1.398       .  A
C480        H491   1.084       .  S
C481        C482   1.423       .  A
C481        C486   1.404       .  A
C482        C483   1.415       .  A
C483        C484   1.399       .  A
C483        H492   1.077       .  S
C484        C485   1.402       .  A
C484        H493   1.083       .  S
C485        C486   1.402       .  A
C486        H494   1.084       .  S
C495        C496   1.402       .  A
C495        C500   1.400       .  A
C496        C497   1.395       .  A
C496        H509   1.083       .  S
C497        C498   1.413       .  A
C497        H510   1.077       .  S
C498        C504   1.430       .  A
C498        C499   1.424       .  A
C499        C501   1.399       .  A
C499        C500   1.405       .  A
C500        H511   1.085       .  S
C501        C502   1.388       .  A
C501        H512   1.084       .  S
C502        C503   1.399       .  A
C502        H513   1.084       .  S
C503        C504   1.421       .  A
C503        C508   1.401       .  A
C504        C505   1.417       .  A
C505        C506   1.398       .  A
C505        H514   1.077       .  S
C506        C507   1.400       .  A
C506        H515   1.083       .  S
C507        C508   1.402       .  A
C508        H516   1.084       .  S
C517        C518   1.404       .  A
C517        C522   1.404       .  A
C518        C519   1.399       .  A
C518        H531   1.083       .  S
C519        C520   1.415       .  A
C519        H532   1.077       .  S
C520        C526   1.434       .  A
C520        C521   1.422       .  A
C521        C523   1.399       .  A
C521        C522   1.406       .  A
C522        H533   1.084       .  S
C523        C524   1.390       .  A
C523        H534   1.084       .  S
C524        C525   1.400       .  A
C524        H535   1.084       .  S
C525        C526   1.423       .  A
C525        C530   1.407       .  A
C526        C527   1.415       .  A
C527        C528   1.399       .  A
C527        H536   1.077       .  S
C528        C529   1.402       .  A
C528        H537   1.083       .  S
C529        C530   1.404       .  A
C530        H538   1.084       .  S
C539        C540   1.395       .  A
C539        C544   1.400       .  A
C540        C541   1.392       .  A
C540        H553   1.084       .  S
C541        C542   1.413       .  A
C541        H554   1.078       .  S
C542        C548   1.421       .  A
C542        C543   1.421       .  A
C543        C545   1.400       .  A
C543        C544   1.402       .  A
C544        H555   1.085       .  S
C545        C546   1.391       .  A
C545        H556   1.084       .  S
C546        C547   1.401       .  A
C546        H557   1.084       .  S
C547        C548   1.418       .  A
C547        C552   1.402       .  A
C548        C549   1.411       .  A
C549        C550   1.392       .  A
C549        H558   1.079       .  S
C550        C551   1.403       .  A
C550        H559   1.082       .  S
C551        C552   1.408       .  A
C552        H560   1.082       .  S
C561        C562   1.400       .  A
C561        C566   1.403       .  A
C562        C563   1.389       .  A
C562        H575   1.083       .  S
C563        C564   1.412       .  A
C563        H576   1.076       .  S
C564        C570   1.427       .  A
C564        C565   1.423       .  A
C565        C567   1.400       .  A
C565        C566   1.408       .  A
C566        H577   1.084       .  S
C567        C568   1.392       .  A
C567        H578   1.084       .  S
C568        C569   1.401       .  A
C568        H579   1.084       .  S
C569        C570   1.421       .  A
C569        C574   1.407       .  A
C570        C571   1.414       .  A
C571        C572   1.392       .  A
C571        H580   1.076       .  S
C572        C573   1.399       .  A
C572        H581   1.083       .  S
C573        C574   1.405       .  A
C574        H582   1.084       .  S
C583        C584   1.407       .  A
C583        C588   1.411       .  A
C584        C585   1.396       .  A
C584        H597   1.080       .  S
C585        C586   1.411       .  A
C585        H598   1.079       .  S
C586        C592   1.425       .  A
C586        C587   1.417       .  A
C587        C589   1.402       .  A
C587        C588   1.404       .  A
C588        H599   1.081       .  S
C589        C590   1.392       .  A
C589        H600   1.084       .  S
C590        C591   1.399       .  A
C590        H601   1.084       .  S
C591        C592   1.422       .  A
C591        C596   1.406       .  A
C592        C593   1.412       .  A
C593        C594   1.392       .  A
C593        H602   1.078       .  S
C594        C595   1.400       .  A
C594        H603   1.084       .  S
C595        C596   1.400       .  A
C596        H604   1.085       .  S
C605        C606   1.404       .  A
C605        C610   1.402       .  A
C606        C607   1.400       .  A
C606        H619   1.083       .  S
C607        C608   1.415       .  A
C607        H620   1.078       .  S
C608        C614   1.432       .  A
C608        C609   1.422       .  A
C609        C611   1.399       .  A
C609        C610   1.404       .  A
C610        H621   1.084       .  S
C611        C612   1.388       .  A
C611        H622   1.084       .  S
C612        C613   1.398       .  A
C612        H623   1.084       .  S
C613        C614   1.423       .  A
C613        C618   1.404       .  A
C614        C615   1.415       .  A
C615        C616   1.399       .  A
C615        H624   1.077       .  S
C616        C617   1.402       .  A
C616        H625   1.083       .  S
C617        C618   1.401       .  A
C618        H626   1.084       .  S
C627        C628   1.401       .  A
C627        C632   1.399       .  A
C628        C629   1.393       .  A
C628        H641   1.083       .  S
C629        C630   1.413       .  A
C629        H642   1.077       .  S
C630        C636   1.427       .  A
C630        C631   1.423       .  A
C631        C633   1.398       .  A
C631        C632   1.402       .  A
C632        H643   1.084       .  S
C633        C634   1.387       .  A
C633        H644   1.084       .  S
C634        C635   1.398       .  A
C634        H645   1.084       .  S
C635        C636   1.421       .  A
C635        C640   1.399       .  A
C636        C637   1.416       .  A
C637        C638   1.396       .  A
C637        H646   1.077       .  S
C638        C639   1.399       .  A
C638        H647   1.083       .  S
C639        C640   1.399       .  A
C640        H648   1.085       .  S
C649        C650   1.395       .  A
C649        C654   1.396       .  A
C650        C651   1.392       .  A
C650        H663   1.084       .  S
C651        C652   1.415       .  A
C651        H664   1.077       .  S
C652        C658   1.426       .  A
C652        C653   1.424       .  A
C653        C655   1.398       .  A
C653        C654   1.402       .  A
C654        H665   1.085       .  S
C655        C656   1.389       .  A
C655        H666   1.084       .  S
C656        C657   1.400       .  A
C656        H667   1.084       .  S
C657        C658   1.421       .  A
C657        C662   1.403       .  A
C658        C659   1.412       .  A
C659        C660   1.393       .  A
C659        H668   1.077       .  S
C660        C661   1.405       .  A
C660        H669   1.082       .  S
C661        C662   1.405       .  A
C662        H670   1.083       .  S
C671        C672   1.404       .  A
C671        C676   1.404       .  A
C672        C673   1.394       .  A
C672        H685   1.083       .  S
C673        C674   1.412       .  A
C673        H686   1.078       .  S
C674        C680   1.427       .  A
C674        C675   1.421       .  A
C675        C677   1.399       .  A
C675        C676   1.403       .  A
C676        H687   1.083       .  S
C677        C678   1.390       .  A
C677        H688   1.084       .  S
C678        C679   1.399       .  A
C678        H689   1.084       .  S
C679        C680   1.422       .  A
C679        C684   1.404       .  A
C680        C681   1.414       .  A
C681        C682   1.394       .  A
C681        H690   1.078       .  S
C682        C683   1.399       .  A
C682        H691   1.083       .  S
C683        C684   1.401       .  A
C684        H692   1.085       .  S
C693        C694   1.396       .  A
C693        C698   1.398       .  A
C694        C695   1.395       .  A
C694        H707   1.083       .  S
C695        C696   1.417       .  A
C695        H708   1.077       .  S
C696        C702   1.428       .  A
C696        C697   1.423       .  A
C697        C699   1.399       .  A
C697        C698   1.403       .  A
C698        H709   1.085       .  S
C699        C700   1.389       .  A
C699        H710   1.084       .  S
C700        C701   1.399       .  A
C700        H711   1.084       .  S
C701        C702   1.423       .  A
C701        C706   1.404       .  A
C702        C703   1.413       .  A
C703        C704   1.393       .  A
C703        H712   1.077       .  S
C704        C705   1.402       .  A
C704        H713   1.083       .  S
C705        C706   1.402       .  A
C706        H714   1.084       .  S
C715        C716   1.399       .  A
C715        C720   1.399       .  A
C716        C717   1.395       .  A
C716        H729   1.084       .  S
C717        C718   1.415       .  A
C717        H730   1.077       .  S
C718        C724   1.429       .  A
C718        C719   1.423       .  A
C719        C721   1.399       .  A
C719        C720   1.404       .  A
C720        H731   1.085       .  S
C721        C722   1.388       .  A
C721        H732   1.084       .  S
C722        C723   1.398       .  A
C722        H733   1.084       .  S
C723        C724   1.424       .  A
C723        C728   1.402       .  A
C724        C725   1.417       .  A
C725        C726   1.396       .  A
C725        H734   1.077       .  S
C726        C727   1.396       .  A
C726        H735   1.084       .  S
C727        C728   1.395       .  A
C728        H736   1.085       .  S
C737        C738   1.407       .  A
C737        C742   1.406       .  A
C738        C739   1.394       .  A
C738        H751   1.081       .  S
C739        C740   1.410       .  A
C739        H752   1.078       .  S
C740        C746   1.427       .  A
C740        C741   1.420       .  A
C741        C743   1.400       .  A
C741        C742   1.404       .  A
C742        H753   1.082       .  S
C743        C744   1.390       .  A
C743        H754   1.084       .  S
C744        C745   1.399       .  A
C744        H755   1.084       .  S
C745        C746   1.421       .  A
C745        C750   1.402       .  A
C746        C747   1.415       .  A
C747        C748   1.397       .  A
C747        H756   1.078       .  S
C748        C749   1.398       .  A
C748        H757   1.084       .  S
C749        C750   1.399       .  A
C750        H758   1.085       .  S
C759        C760   1.403       .  A
C759        C764   1.407       .  A
C760        C761   1.395       .  A
C760        H773   1.083       .  S
C761        C762   1.412       .  A
C761        H774   1.079       .  S
C762        C768   1.425       .  A
C762        C763   1.419       .  A
C763        C765   1.401       .  A
C763        C764   1.405       .  A
C764        H775   1.083       .  S
C765        C766   1.392       .  A
C765        H776   1.084       .  S
C766        C767   1.400       .  A
C766        H777   1.084       .  S
C767        C768   1.421       .  A
C767        C772   1.404       .  A
C768        C769   1.414       .  A
C769        C770   1.396       .  A
C769        H778   1.078       .  S
C770        C771   1.397       .  A
C770        H779   1.084       .  S
C771        C772   1.400       .  A
C772        H780   1.085       .  S
C781        C782   1.399   1_565  A
C781        C786   1.402       .  A
C782        C783   1.398       .  A
C782        H795   1.083       .  S
C783        C784   1.416   1_545  A
C783        H796   1.077       .  S
C784        C790   1.433       .  A
C784        C785   1.423       .  A
C785        C787   1.400       .  A
C785        C786   1.409       .  A
C786        H797   1.084       .  S
C787        C788   1.392       .  A
C787        H798   1.084       .  S
C788        C789   1.400       .  A
C788        H799   1.084       .  S
C789        C790   1.424       .  A
C789        C794   1.410       .  A
C790        C791   1.415   1_565  A
C791        C792   1.397       .  A
C791        H800   1.077       .  S
C792        C793   1.399   1_545  A
C792        H801   1.084       .  S
C793        C794   1.401       .  A
C794        H802   1.085       .  S
C803        C804   1.396       .  A
C803        C808   1.397   1_565  A
C804        C805   1.395       .  A
C804        H817   1.083       .  S
C805        C806   1.416       .  A
C805        H818   1.077       .  S
C806        C812   1.428       .  A
C806        C807   1.423   1_565  A
C807        C809   1.398       .  A
C807        C808   1.402       .  A
C808        H819   1.085       .  S
C809        C810   1.388       .  A
C809        H820   1.084       .  S
C810        C811   1.399       .  A
C810        H821   1.084       .  S
C811        C812   1.422   1_545  A
C811        C816   1.402       .  A
C812        C813   1.414       .  A
C813        C814   1.395       .  A
C813        H822   1.077       .  S
C814        C815   1.402       .  A
C814        H823   1.083       .  S
C815        C816   1.401   1_565  A
C816        H824   1.084       .  S
C825        C826   1.400       .  A
C825        C830   1.401   1_565  A
C826        C827   1.397       .  A
C826        H839   1.083       .  S
C827        C828   1.416       .  A
C827        H840   1.077       .  S
C828        C834   1.428       .  A
C828        C829   1.422   1_565  A
C829        C831   1.399       .  A
C829        C830   1.401       .  A
C830        H841   1.085       .  S
C831        C832   1.388       .  A
C831        H842   1.084       .  S
C832        C833   1.398       .  A
C832        H843   1.084       .  S
C833        C834   1.424   1_545  A
C833        C838   1.403       .  A
C834        C835   1.415       .  A
C835        C836   1.395       .  A
C835        H844   1.077       .  S
C836        C837   1.396       .  A
C836        H845   1.083       .  S
C837        C838   1.397   1_565  A
C838        H846   1.085       .  S
C847        C848   1.397   1_565  A
C847        C852   1.400       .  A
C848        C849   1.397       .  A
C848        H861   1.083       .  S
C849        C850   1.416   1_545  A
C849        H862   1.077       .  S
C850        C856   1.431       .  A
C850        C851   1.424       .  A
C851        C853   1.400       .  A
C851        C852   1.408       .  A
C852        H863   1.084       .  S
C853        C854   1.391       .  A
C853        H864   1.084       .  S
C854        C855   1.400       .  A
C854        H865   1.084       .  S
C855        C856   1.421       .  A
C855        C860   1.407       .  A
C856        C857   1.414   1_565  A
C857        C858   1.397       .  A
C857        H866   1.077       .  S
C858        C859   1.405   1_545  A
C858        H867   1.082       .  S
C859        C860   1.406       .  A
C860        H868   1.083       .  S
C869        C870   1.396       .  A
C869        C874   1.399       .  A
C870        C871   1.395       .  A
C870        H883   1.083       .  S
C871        C872   1.415       .  A
C871        H884   1.078       .  S
C872        C878   1.426       .  A
C872        C873   1.422       .  A
C873        C875   1.400       .  A
C873        C874   1.405       .  A
C874        H885   1.084       .  S
C875        C876   1.392       .  A
C875        H886   1.084       .  S
C876        C877   1.401       .  A
C876        H887   1.084       .  S
C877        C878   1.421       .  A
C877        C882   1.406       .  A
C878        C879   1.411       .  A
C879        C880   1.393       .  A
C879        H888   1.078       .  S
C880        C881   1.402       .  A
C880        H889   1.082       .  S
C881        C882   1.407       .  A
C882        H890   1.084       .  S
C891        C892   1.407       .  A
C891        C896   1.410       .  A
C892        C893   1.396       .  A
C892        H905   1.081       .  S
C893        C894   1.412       .  A
C893        H906   1.078       .  S
C894        C900   1.429       .  A
C894        C895   1.419       .  A
C895        C897   1.401       .  A
C895        C896   1.407       .  A
C896        H907   1.082       .  S
C897        C898   1.392       .  A
C897        H908   1.084       .  S
C898        C899   1.400       .  A
C898        H909   1.084       .  S
C899        C900   1.422       .  A
C899        C904   1.407       .  A
C900        C901   1.414       .  A
C901        C902   1.396       .  A
C901        H910   1.078       .  S
C902        C903   1.401       .  A
C902        H911   1.083       .  S
C903        C904   1.404       .  A
C904        H912   1.084       .  S
C913        C914   1.397       .  A
C913        C918   1.399       .  A
C914        C915   1.396       .  A
C914        H927   1.083       .  S
C915        C916   1.416       .  A
C915        H928   1.078       .  S
C916        C922   1.428       .  A
C916        C917   1.422       .  A
C917        C919   1.400       .  A
C917        C918   1.405       .  A
C918        H929   1.085       .  S
C919        C920   1.392       .  A
C919        H930   1.084       .  S
C920        C921   1.400       .  A
C920        H931   1.084       .  S
C921        C922   1.422       .  A
C921        C926   1.408       .  A
C922        C923   1.412       .  A
C923        C924   1.393       .  A
C923        H932   1.078       .  S
C924        C925   1.403       .  A
C924        H933   1.083       .  S
C925        C926   1.404       .  A
C926        H934   1.084       .  S
C935        C936   1.402       .  A
C935        C940   1.403       .  A
C936        C937   1.401       .  A
C936        H949   1.083       .  S
C937        C938   1.416       .  A
C937        H950   1.077       .  S
C938        C944   1.436       .  A
C938        C939   1.423       .  A
C939        C941   1.400       .  A
C939        C940   1.408       .  A
C940        H951   1.084       .  S
C941        C942   1.390       .  A
C941        H952   1.084       .  S
C942        C943   1.399       .  A
C942        H953   1.084       .  S
C943        C944   1.424       .  A
C943        C948   1.408       .  A
C944        C945   1.417       .  A
C945        C946   1.401       .  A
C945        H954   1.077       .  S
C946        C947   1.399       .  A
C946        H955   1.083       .  S
C947        C948   1.399       .  A
C948        H956   1.084       .  S
C957        C958   1.401       .  A
C957        C962   1.400       .  A
C958        C959   1.396       .  A
C958        H971   1.083       .  S
C959        C960   1.415       .  A
C959        H972   1.078       .  S
C960        C966   1.427       .  A
C960        C961   1.421       .  A
C961        C963   1.399       .  A
C961        C962   1.401       .  A
C962        H973   1.084       .  S
C963        C964   1.388       .  A
C963        H974   1.084       .  S
C964        C965   1.399       .  A
C964        H975   1.084       .  S
C965        C966   1.422       .  A
C965        C970   1.403       .  A
C966        C967   1.413       .  A
C967        C968   1.394       .  A
C967        H976   1.078       .  S
C968        C969   1.401       .  A
C968        H977   1.083       .  S
C969        C970   1.401       .  A
C970        H978   1.084       .  S
C979        C980   1.400       .  A
C979        C984   1.404       .  A
C980        C981   1.392       .  A
C980        H993   1.083       .  S
C981        C982   1.414       .  A
C981        H994   1.076       .  S
C982        C988   1.427       .  A
C982        C983   1.421       .  A
C983        C985   1.400       .  A
C983        C984   1.406       .  A
C984        H995   1.084       .  S
C985        C986   1.391       .  A
C985        H996   1.084       .  S
C986        C987   1.400       .  A
C986        H997   1.084       .  S
C987        C988   1.422       .  A
C987        C992   1.406       .  A
C988        C989   1.413       .  A
C989        C990   1.392       .  A
C989        H998   1.076       .  S
C990        C991   1.400       .  A
C990        H999   1.083       .  S
C991        C992   1.404       .  A
C992       H1000   1.084       .  S
C1001      C1002   1.400       .  A
C1001      C1006   1.399       .  A
C1002      C1003   1.395       .  A
C1002      H1015   1.084       .  S
C1003      C1004   1.415       .  A
C1003      H1016   1.078       .  S
C1004      C1010   1.426       .  A
C1004      C1005   1.422       .  A
C1005      C1007   1.398       .  A
C1005      C1006   1.400       .  A
C1006      H1017   1.085       .  S
C1007      C1008   1.388       .  A
C1007      H1018   1.084       .  S
C1008      C1009   1.399       .  A
C1008      H1019   1.084       .  S
C1009      C1010   1.421       .  A
C1009      C1014   1.401       .  A
C1010      C1011   1.413       .  A
C1011      C1012   1.395       .  A
C1011      H1020   1.078       .  S
C1012      C1013   1.403       .  A
C1012      H1021   1.083       .  S
C1013      C1014   1.402       .  A
C1014      H1022   1.084       .  S
C1023      C1024   1.399       .  A
C1023      C1028   1.401       .  A
C1024      C1025   1.398       .  A
C1024      H1037   1.083       .  S
C1025      C1026   1.415       .  A
C1025      H1038   1.077       .  S
C1026      C1032   1.432       .  A
C1026      C1027   1.423       .  A
C1027      C1029   1.400       .  A
C1027      C1028   1.408       .  A
C1028      H1039   1.085       .  S
C1029      C1030   1.391       .  A
C1029      H1040   1.084       .  S
C1030      C1031   1.400       .  A
C1030      H1041   1.084       .  S
C1031      C1032   1.422       .  A
C1031      C1036   1.406       .  A
C1032      C1033   1.416       .  A
C1033      C1034   1.398       .  A
C1033      H1042   1.077       .  S
C1034      C1035   1.400       .  A
C1034      H1043   1.083       .  S
C1035      C1036   1.403       .  A
C1036      H1044   1.084       .  S
C1045      C1046   1.398       .  A
C1045      C1050   1.397       .  A
C1046      C1047   1.398       .  A
C1046      H1059   1.083       .  S
C1047      C1048   1.416       .  A
C1047      H1060   1.077       .  S
C1048      C1054   1.430       .  A
C1048      C1049   1.424       .  A
C1049      C1051   1.398       .  A
C1049      C1050   1.404       .  A
C1050      H1061   1.085       .  S
C1051      C1052   1.388       .  A
C1051      H1062   1.084       .  S
C1052      C1053   1.398       .  A
C1052      H1063   1.084       .  S
C1053      C1054   1.423       .  A
C1053      C1058   1.402       .  A
C1054      C1055   1.416       .  A
C1055      C1056   1.398       .  A
C1055      H1064   1.078       .  S
C1056      C1057   1.400       .  A
C1056      H1065   1.084       .  S
C1057      C1058   1.397       .  A
C1058      H1066   1.085       .  S
C1067      C1068   1.395       .  A
C1067      C1072   1.396       .  A
C1068      C1069   1.393       .  A
C1068      H1081   1.084       .  S
C1069      C1070   1.416       .  A
C1069      H1082   1.077       .  S
C1070      C1076   1.427       .  A
C1070      C1071   1.424       .  A
C1071      C1073   1.398       .  A
C1071      C1072   1.402       .  A
C1072      H1083   1.085       .  S
C1073      C1074   1.389       .  A
C1073      H1084   1.084       .  S
C1074      C1075   1.399       .  A
C1074      H1085   1.084       .  S
C1075      C1076   1.422       .  A
C1075      C1080   1.403       .  A
C1076      C1077   1.414       .  A
C1077      C1078   1.394       .  A
C1077      H1086   1.077       .  S
C1078      C1079   1.402       .  A
C1078      H1087   1.083       .  S
C1079      C1080   1.401       .  A
C1080      H1088   1.084       .  S
C1089      C1090   1.399       .  A
C1089      C1094   1.402       .  A
C1090      C1091   1.397       .  A
C1090      H1103   1.084       .  S
C1091      C1092   1.416       .  A
C1091      H1104   1.077       .  S
C1092      C1098   1.430       .  A
C1092      C1093   1.422       .  A
C1093      C1095   1.400       .  A
C1093      C1094   1.406       .  A
C1094      H1105   1.085       .  S
C1095      C1096   1.392       .  A
C1095      H1106   1.084       .  S
C1096      C1097   1.401       .  A
C1096      H1107   1.084       .  S
C1097      C1098   1.420       .  A
C1097      C1102   1.410       .  A
C1098      C1099   1.410       .  A
C1099      C1100   1.395       .  A
C1099      H1108   1.077       .  S
C1100      C1101   1.409       .  A
C1100      H1109   1.079       .  S
C1101      C1102   1.412       .  A
C1102      H1110   1.080       .  S
C1111      C1112   1.407       .  A
C1111      C1116   1.411       .  A
C1112      C1113   1.393       .  A
C1112      H1125   1.080       .  S
C1113      C1114   1.409       .  A
C1113      H1126   1.079       .  S
C1114      C1120   1.424       .  A
C1114      C1115   1.417       .  A
C1115      C1117   1.401       .  A
C1115      C1116   1.405       .  A
C1116      H1127   1.081       .  S
C1117      C1118   1.393       .  A
C1117      H1128   1.084       .  S
C1118      C1119   1.400       .  A
C1118      H1129   1.084       .  S
C1119      C1120   1.421       .  A
C1119      C1124   1.406       .  A
C1120      C1121   1.412       .  A
C1121      C1122   1.393       .  A
C1121      H1130   1.079       .  S
C1122      C1123   1.399       .  A
C1122      H1131   1.084       .  S
C1123      C1124   1.402       .  A
C1124      H1132   1.084       .  S
C1133      C1134   1.402   1_565  A
C1133      C1138   1.403       .  A
C1134      C1135   1.398       .  A
C1134      H1147   1.083       .  S
C1135      C1136   1.415   1_545  A
C1135      H1148   1.078       .  S
C1136      C1142   1.432       .  A
C1136      C1137   1.422       .  A
C1137      C1139   1.399       .  A
C1137      C1138   1.405       .  A
C1138      H1149   1.084       .  S
C1139      C1140   1.391       .  A
C1139      H1150   1.084       .  S
C1140      C1141   1.401       .  A
C1140      H1151   1.084       .  S
C1141      C1142   1.421       .  A
C1141      C1146   1.407       .  A
C1142      C1143   1.413   1_565  A
C1143      C1144   1.399       .  A
C1143      H1152   1.078       .  S
C1144      C1145   1.405   1_545  A
C1144      H1153   1.082       .  S
C1145      C1146   1.408       .  A
C1146      H1154   1.083       .  S
C1155      C1156   1.395       .  A
C1155      C1160   1.399   1_545  A
C1156      C1157   1.395       .  A
C1156      H1169   1.083       .  S
C1157      C1158   1.416       .  A
C1157      H1170   1.077       .  S
C1158      C1164   1.430       .  A
C1158      C1159   1.424   1_545  A
C1159      C1161   1.400       .  A
C1159      C1160   1.406       .  A
C1160      H1171   1.085       .  S
C1161      C1162   1.391       .  A
C1161      H1172   1.084       .  S
C1162      C1163   1.400       .  A
C1162      H1173   1.084       .  S
C1163      C1164   1.422   1_565  A
C1163      C1168   1.405       .  A
C1164      C1165   1.415       .  A
C1165      C1166   1.396       .  A
C1165      H1174   1.077       .  S
C1166      C1167   1.399       .  A
C1166      H1175   1.083       .  S
C1167      C1168   1.404   1_545  A
C1168      H1176   1.085       .  S
C1177      C1178   1.399   1_545  A
C1177      C1182   1.399       .  A
C1178      C1179   1.395       .  A
C1178      H1191   1.084       .  S
C1179      C1180   1.416   1_565  A
C1179      H1192   1.077       .  S
C1180      C1186   1.429       .  A
C1180      C1181   1.423       .  A
C1181      C1183   1.399       .  A
C1181      C1182   1.403       .  A
C1182      H1193   1.085       .  S
C1183      C1184   1.389       .  A
C1183      H1194   1.084       .  S
C1184      C1185   1.399       .  A
C1184      H1195   1.084       .  S
C1185      C1186   1.424       .  A
C1185      C1190   1.404       .  A
C1186      C1187   1.416   1_545  A
C1187      C1188   1.395       .  A
C1187      H1196   1.077       .  S
C1188      C1189   1.395   1_565  A
C1188      H1197   1.084       .  S
C1189      C1190   1.398       .  A
C1190      H1198   1.085       .  S
C1199      C1200   1.400       .  A
C1199      C1204   1.400   1_565  A
C1200      C1201   1.395       .  A
C1200      H1213   1.083       .  S
C1201      C1202   1.415       .  A
C1201      H1214   1.078       .  S
C1202      C1208   1.425       .  A
C1202      C1203   1.421   1_565  A
C1203      C1205   1.399       .  A
C1203      C1204   1.400       .  A
C1204      H1215   1.085       .  S
C1205      C1206   1.388       .  A
C1205      H1216   1.084       .  S
C1206      C1207   1.399       .  A
C1206      H1217   1.084       .  S
C1207      C1208   1.420   1_545  A
C1207      C1212   1.401       .  A
C1208      C1209   1.411       .  A
C1209      C1210   1.393       .  A
C1209      H1218   1.078       .  S
C1210      C1211   1.405   1_565  A
C1210      H1219   1.082       .  S
C1211      C1212   1.404       .  A
C1212      H1220   1.083       .  S
C1221      C1222   1.398       .  A
C1221      C1226   1.398       .  A
C1222      C1223   1.395       .  A
C1222      H1235   1.084       .  S
C1223      C1224   1.415       .  A
C1223      H1236   1.078       .  S
C1224      C1230   1.428       .  A
C1224      C1225   1.423       .  A
C1225      C1227   1.400       .  A
C1225      C1226   1.406       .  A
C1226      H1237   1.085       .  S
C1227      C1228   1.391       .  A
C1227      H1238   1.084       .  S
C1228      C1229   1.401       .  A
C1228      H1239   1.084       .  S
C1229      C1230   1.421       .  A
C1229      C1234   1.406       .  A
C1230      C1231   1.412       .  A
C1231      C1232   1.394       .  A
C1231      H1240   1.078       .  S
C1232      C1233   1.403       .  A
C1232      H1241   1.083       .  S
C1233      C1234   1.406       .  A
C1234      H1242   1.084       .  S
C1243      C1244   1.404       .  A
C1243      C1248   1.406       .  A
C1244      C1245   1.398       .  A
C1244      H1257   1.082       .  S
C1245      C1246   1.414       .  A
C1245      H1258   1.077       .  S
C1246      C1252   1.433       .  A
C1246      C1247   1.422       .  A
C1247      C1249   1.400       .  A
C1247      C1248   1.408       .  A
C1248      H1259   1.084       .  S
C1249      C1250   1.391       .  A
C1249      H1260   1.084       .  S
C1250      C1251   1.399       .  A
C1250      H1261   1.084       .  S
C1251      C1252   1.424       .  A
C1251      C1256   1.407       .  A
C1252      C1253   1.417       .  A
C1253      C1254   1.399       .  A
C1253      H1262   1.077       .  S
C1254      C1255   1.397       .  A
C1254      H1263   1.084       .  S
C1255      C1256   1.399       .  A
C1256      H1264   1.085       .  S
C1265      C1266   1.403       .  A
C1265      C1270   1.406       .  A
C1266      C1267   1.393       .  A
C1266      H1279   1.082       .  S
C1267      C1268   1.412       .  A
C1267      H1280   1.078       .  S
C1268      C1274   1.426       .  A
C1268      C1269   1.421       .  A
C1269      C1271   1.400       .  A
C1269      C1270   1.404       .  A
C1270      H1281   1.083       .  S
C1271      C1272   1.390       .  A
C1271      H1282   1.084       .  S
C1272      C1273   1.400       .  A
C1272      H1283   1.084       .  S
C1273      C1274   1.421       .  A
C1273      C1278   1.402       .  A
C1274      C1275   1.415       .  A
C1275      C1276   1.395       .  A
C1275      H1284   1.077       .  S
C1276      C1277   1.398       .  A
C1276      H1285   1.083       .  S
C1277      C1278   1.401       .  A
C1278      H1286   1.085       .  S
C1287      C1288   1.399       .  A
C1287      C1292   1.402       .  A
C1288      C1289   1.395       .  A
C1288      H1301   1.083       .  S
C1289      C1290   1.415       .  A
C1289      H1302   1.077       .  S
C1290      C1296   1.430       .  A
C1290      C1291   1.423       .  A
C1291      C1293   1.400       .  A
C1291      C1292   1.407       .  A
C1292      H1303   1.085       .  S
C1293      C1294   1.391       .  A
C1293      H1304   1.084       .  S
C1294      C1295   1.400       .  A
C1294      H1305   1.084       .  S
C1295      C1296   1.424       .  A
C1295      C1300   1.407       .  A
C1296      C1297   1.416       .  A
C1297      C1298   1.396       .  A
C1297      H1306   1.077       .  S
C1298      C1299   1.396       .  A
C1298      H1307   1.084       .  S
C1299      C1300   1.399       .  A
C1300      H1308   1.084       .  S
C1309      C1310   1.403       .  A
C1309      C1314   1.405       .  A
C1310      C1311   1.399       .  A
C1310      H1323   1.083       .  S
C1311      C1312   1.415       .  A
C1311      H1324   1.077       .  S
C1312      C1318   1.434       .  A
C1312      C1313   1.423       .  A
C1313      C1315   1.400       .  A
C1313      C1314   1.407       .  A
C1314      H1325   1.084       .  S
C1315      C1316   1.390       .  A
C1315      H1326   1.084       .  S
C1316      C1317   1.399       .  A
C1316      H1327   1.084       .  S
C1317      C1318   1.423       .  A
C1317      C1322   1.405       .  A
C1318      C1319   1.418       .  A
C1319      C1320   1.400       .  A
C1319      H1328   1.077       .  S
C1320      C1321   1.398       .  A
C1320      H1329   1.083       .  S
C1321      C1322   1.398       .  A
C1322      H1330   1.085       .  S
C1331      C1332   1.406       .  A
C1331      C1336   1.408       .  A
C1332      C1333   1.398       .  A
C1332      H1345   1.082       .  S
C1333      C1334   1.413       .  A
C1333      H1346   1.078       .  S
C1334      C1340   1.431       .  A
C1334      C1335   1.420       .  A
C1335      C1337   1.401       .  A
C1335      C1336   1.407       .  A
C1336      H1347   1.083       .  S
C1337      C1338   1.391       .  A
C1337      H1348   1.084       .  S
C1338      C1339   1.399       .  A
C1338      H1349   1.084       .  S
C1339      C1340   1.423       .  A
C1339      C1344   1.408       .  A
C1340      C1341   1.414       .  A
C1341      C1342   1.397       .  A
C1341      H1350   1.078       .  S
C1342      C1343   1.402       .  A
C1342      H1351   1.084       .  S
C1343      C1344   1.401       .  A
C1344      H1352   1.084       .  S
C1353      C1354   1.396       .  A
C1353      C1358   1.399       .  A
C1354      C1355   1.394       .  A
C1354      H1367   1.083       .  S
C1355      C1356   1.416       .  A
C1355      H1368   1.076       .  S
C1356      C1362   1.428       .  A
C1356      C1357   1.423       .  A
C1357      C1359   1.400       .  A
C1357      C1358   1.404       .  A
C1358      H1369   1.085       .  S
C1359      C1360   1.391       .  A
C1359      H1370   1.084       .  S
C1360      C1361   1.400       .  A
C1360      H1371   1.084       .  S
C1361      C1362   1.423       .  A
C1361      C1366   1.406       .  A
C1362      C1363   1.414       .  A
C1363      C1364   1.393       .  A
C1363      H1372   1.076       .  S
C1364      C1365   1.398       .  A
C1364      H1373   1.083       .  S
C1365      C1366   1.402       .  A
C1366      H1374   1.085       .  S
C1375      C1376   1.397       .  A
C1375      C1380   1.397       .  A
C1376      C1377   1.397       .  A
C1376      H1389   1.083       .  S
C1377      C1378   1.417       .  A
C1377      H1390   1.077       .  S
C1378      C1384   1.430       .  A
C1378      C1379   1.423       .  A
C1379      C1381   1.399       .  A
C1379      C1380   1.404       .  A
C1380      H1391   1.085       .  S
C1381      C1382   1.390       .  A
C1381      H1392   1.084       .  S
C1382      C1383   1.400       .  A
C1382      H1393   1.084       .  S
C1383      C1384   1.423       .  A
C1383      C1388   1.406       .  A
C1384      C1385   1.414       .  A
C1385      C1386   1.395       .  A
C1385      H1394   1.077       .  S
C1386      C1387   1.401       .  A
C1386      H1395   1.083       .  S
C1387      C1388   1.403       .  A
C1388      H1396   1.084       .  S
C1397      C1398   1.396       .  A
C1397      C1402   1.398       .  A
C1398      C1399   1.396       .  A
C1398      H1411   1.083       .  S
C1399      C1400   1.417       .  A
C1399      H1412   1.077       .  S
C1400      C1406   1.429       .  A
C1400      C1401   1.423       .  A
C1401      C1403   1.399       .  A
C1401      C1402   1.404       .  A
C1402      H1413   1.085       .  S
C1403      C1404   1.390       .  A
C1403      H1414   1.084       .  S
C1404      C1405   1.399       .  A
C1404      H1415   1.084       .  S
C1405      C1406   1.423       .  A
C1405      C1410   1.406       .  A
C1406      C1407   1.413       .  A
C1407      C1408   1.394       .  A
C1407      H1416   1.077       .  S
C1408      C1409   1.402       .  A
C1408      H1417   1.083       .  S
C1409      C1410   1.403       .  A
C1410      H1418   1.084       .  S
C1419      C1420   1.396       .  A
C1419      C1424   1.397       .  A
C1420      C1421   1.395       .  A
C1420      H1433   1.083       .  S
C1421      C1422   1.416       .  A
C1421      H1434   1.078       .  S
C1422      C1428   1.427       .  A
C1422      C1423   1.423       .  A
C1423      C1425   1.399       .  A
C1423      C1424   1.402       .  A
C1424      H1435   1.085       .  S
C1425      C1426   1.389       .  A
C1425      H1436   1.084       .  S
C1426      C1427   1.399       .  A
C1426      H1437   1.084       .  S
C1427      C1428   1.422       .  A
C1427      C1432   1.404       .  A
C1428      C1429   1.413       .  A
C1429      C1430   1.394       .  A
C1429      H1438   1.078       .  S
C1430      C1431   1.402       .  A
C1430      H1439   1.083       .  S
C1431      C1432   1.403       .  A
C1432      H1440   1.084       .  S
C1441      C1442   1.397       .  A
C1441      C1446   1.399       .  A
C1442      C1443   1.393       .  A
C1442      H1455   1.084       .  S
C1443      C1444   1.416       .  A
C1443      H1456   1.077       .  S
C1444      C1450   1.426       .  A
C1444      C1445   1.422       .  A
C1445      C1447   1.399       .  A
C1445      C1446   1.401       .  A
C1446      H1457   1.085       .  S
C1447      C1448   1.389       .  A
C1447      H1458   1.084       .  S
C1448      C1449   1.399       .  A
C1448      H1459   1.084       .  S
C1449      C1450   1.424       .  A
C1449      C1454   1.404       .  A
C1450      C1451   1.415       .  A
C1451      C1452   1.392       .  A
C1451      H1460   1.077       .  S
C1452      C1453   1.396       .  A
C1452      H1461   1.084       .  S
C1453      C1454   1.398       .  A
C1454      H1462   1.085       .  S
C1463      C1464   1.398       .  A
C1463      C1468   1.398       .  A
C1464      C1465   1.399       .  A
C1464      H1477   1.083       .  S
C1465      C1466   1.418       .  A
C1465      H1478   1.077       .  S
C1466      C1472   1.432       .  A
C1466      C1467   1.423       .  A
C1467      C1469   1.399       .  A
C1467      C1468   1.405       .  A
C1468      H1479   1.085       .  S
C1469      C1470   1.390       .  A
C1469      H1480   1.084       .  S
C1470      C1471   1.399       .  A
C1470      H1481   1.084       .  S
C1471      C1472   1.423       .  A
C1471      C1476   1.407       .  A
C1472      C1473   1.414       .  A
C1473      C1474   1.397       .  A
C1473      H1482   1.077       .  S
C1474      C1475   1.402       .  A
C1474      H1483   1.083       .  S
C1475      C1476   1.403       .  A
C1476      H1484   1.084       .  S
C1485      C1486   1.397       .  A
C1485      C1490   1.400       .  A
C1486      C1487   1.395       .  A
C1486      H1499   1.084       .  S
C1487      C1488   1.417       .  A
C1487      H1500   1.077       .  S
C1488      C1494   1.428       .  A
C1488      C1489   1.422       .  A
C1489      C1491   1.400       .  A
C1489      C1490   1.404       .  A
C1490      H1501   1.085       .  S
C1491      C1492   1.391       .  A
C1491      H1502   1.084       .  S
C1492      C1493   1.399       .  A
C1492      H1503   1.084       .  S
C1493      C1494   1.424       .  A
C1493      C1498   1.407       .  A
C1494      C1495   1.412       .  A
C1495      C1496   1.391       .  A
C1495      H1504   1.077       .  S
C1496      C1497   1.401       .  A
C1496      H1505   1.083       .  S
C1497      C1498   1.401       .  A
C1498      H1506   1.084       .  S
C1507      C1508   1.396       .  A
C1507      C1512   1.398       .  A
C1508      C1509   1.396       .  A
C1508      H1521   1.083       .  S
C1509      C1510   1.416       .  A
C1509      H1522   1.077       .  S
C1510      C1516   1.430       .  A
C1510      C1511   1.424       .  A
C1511      C1513   1.399       .  A
C1511      C1512   1.405       .  A
C1512      H1523   1.085       .  S
C1513      C1514   1.389       .  A
C1513      H1524   1.084       .  S
C1514      C1515   1.399       .  A
C1514      H1525   1.084       .  S
C1515      C1516   1.423       .  A
C1515      C1520   1.404       .  A
C1516      C1517   1.416       .  A
C1517      C1518   1.397       .  A
C1517      H1526   1.077       .  S
C1518      C1519   1.400       .  A
C1518      H1527   1.083       .  S
C1519      C1520   1.400       .  A
C1520      H1528   1.085       .  S
