geometry optimzed in LAMMPS
_audit_creation_date              2020-11-30 
_audit_creation_method            'lammps2cif' 
_symmetry_space_group_name_H-M    'P1' 
_symmetry_Int_Tables_number       1 
_symmetry_cell_setting            triclinic 
loop_ 
_symmetry_equiv_pos_as_xyz 
  x,y,z 
_cell_length_a                    39.76462573 
_cell_length_b                    39.71658511998596 
_cell_length_c                    79.32267637766313 
_cell_angle_alpha                 90.10874433686188 
_cell_angle_beta                  90.02344274000114 
_cell_angle_gamma                 90.01858760203633 
loop_ 
_atom_site_label 
_atom_site_type_symbol 
_atom_site_fract_x 
_atom_site_fract_y 
_atom_site_fract_z 
_atom_site_charge 
O1          O  0.78125224  0.71513430  0.76948242    -0.70800
O2          O  0.78702332  0.77926667  0.73390993    -0.71100
O3          O  0.78160371  0.78287106  0.76750672    -0.70900
O4          O  0.78690730  0.71159844  0.73565470    -0.70900
O5          O  0.73339040  0.71689800  0.73075881    -0.70900
O6          O  0.72724375  0.77751451  0.76773361    -0.70900
O7          O  0.73261644  0.78410932  0.73433596    -0.70800
O8          O  0.72780175  0.71003186  0.76442245    -0.71000
V9          V  0.78330883  0.74718391  0.75159899     1.35200
V10         V  0.73118551  0.74709651  0.74937228     1.35200
C11         C  0.75351940  0.70071655  0.77257086     0.78400
C12         C  0.76067444  0.79366546  0.72860816     0.78500
C13         C  0.75340421  0.79184210  0.77331728     0.78300
C14         C  0.76118194  0.70304882  0.72729744     0.78300
O15         O  0.23129237  0.78160773  0.73320309    -0.70800
O16         O  0.23136024  0.71407122  0.76671342    -0.71100
O17         O  0.23216125  0.78138842  0.76696682    -0.70900
O18         O  0.23062859  0.71422719  0.73297318    -0.70900
O19         O  0.28513823  0.71451802  0.73247057    -0.70900
O20         O  0.28667220  0.78048839  0.76717087    -0.70900
O21         O  0.28585259  0.71266424  0.76642322    -0.70800
O22         O  0.28585528  0.78224457  0.73327233    -0.71000
V23         V  0.23247063  0.74785219  0.74998096     1.35200
V24         V  0.28488335  0.74746314  0.74982343     1.35200
C25         C  0.25841706  0.79360252  0.72750777     0.78400
C26         C  0.25838053  0.70154761  0.77227131     0.78500
C27         C  0.25953866  0.79232671  0.77297903     0.78300
C28         C  0.25767812  0.70297141  0.72681350     0.78300
O29         O  0.04042606  0.46785530  0.48477238    -0.70800
O30         O  0.97577925  0.46711386  0.51990393    -0.71100
O31         O  0.97258886  0.46729929  0.48605214    -0.70900
O32         O  0.04262304  0.46788429  0.51855767    -0.70900
O33         O  0.03911149  0.52232882  0.52018970    -0.70900
O34         O  0.97558528  0.52182413  0.48439615    -0.70900
O35         O  0.97187546  0.52160299  0.51823051    -0.70800
O36         O  0.04295919  0.52239086  0.48613173    -0.71000
V37         V  0.00786757  0.46856596  0.50224850     1.35200
V38         V  0.00744456  0.52105237  0.50222949     1.35200
C39         C  0.05342115  0.49512392  0.47974490     0.78400
C40         C  0.96250823  0.49423379  0.52487510     0.78500
C41         C  0.96240487  0.49451393  0.47954837     0.78300
C42         C  0.05171886  0.49509278  0.52548534     0.78300
C43         C  0.73560577  0.46563532  0.62905343     0.04100
C44         C  0.75719847  0.46793011  0.61510461    -0.12100
C45         C  0.78264633  0.49253368  0.61444579     0.01600
C46         C  0.78599721  0.51528995  0.62792161    -0.10600
C47         C  0.76422848  0.51392193  0.64182981     0.04100
C48         C  0.73930475  0.48878217  0.64234371    -0.10000
H49         H  0.75369856  0.45098522  0.60453347     0.09700
H50         H  0.80527292  0.53432191  0.62750947     0.07200
H51         H  0.72240376  0.48749238  0.65305043     0.07000
C52         C  0.27718930  0.46445798  0.62947120     0.04100
C53         C  0.25018897  0.46324700  0.61802406    -0.12100
C54         C  0.22692624  0.48986320  0.61726077     0.01600
C55         C  0.23088996  0.51780233  0.62792534    -0.10600
C56         C  0.25741939  0.51898123  0.63948029     0.04100
C57         C  0.28027100  0.49228016  0.64029252    -0.10000
H58         H  0.24819238  0.44259586  0.60916702     0.09700
H59         H  0.21301592  0.53838585  0.62740914     0.07200
H60         H  0.30068177  0.49328765  0.64936251     0.07000
O61         O  0.97308067  0.02732099  0.51676125    -0.70800
O62         O  0.03723899  0.02780310  0.48130785    -0.71100
O63         O  0.96951530  0.02859140  0.48285446    -0.70900
O64         O  0.04027902  0.02604959  0.51520305    -0.70900
O65         O  0.03810376  0.97144359  0.51527854    -0.70900
O66         O  0.97022123  0.97403151  0.48178343    -0.70900
O67         O  0.03751401  0.97318471  0.48123370    -0.70800
O68         O  0.97099053  0.97280712  0.51559349    -0.71000
V69         V  0.00503466  0.02641523  0.49900698     1.35200
V70         V  0.00425647  0.97394284  0.49846133     1.35200
C71         C  0.96115150  0.00000752  0.52229458     0.78400
C72         C  0.04839320  0.00059403  0.47519007     0.78500
C73         C  0.95792268  0.00153181  0.47669310     0.78300
C74         C  0.05062018  0.99829131  0.52107891     0.78300
C75         C  0.28645080  0.01360215  0.62103827     0.04100
C76         C  0.26164100  0.01434815  0.60841559    -0.12100
C77         C  0.23516072  0.99096269  0.60836687     0.01600
C78         C  0.23359461  0.96658666  0.62113000    -0.10600
C79         C  0.25830233  0.96513712  0.63374413     0.04100
C80         C  0.28453351  0.98888808  0.63365076    -0.10000
H81         H  0.26237454  0.03386377  0.59890856     0.09700
H82         H  0.21258207  0.94926901  0.62145996     0.07200
H83         H  0.30289941  0.98871334  0.64372528     0.07000
C84         C  0.76416142  0.97523600  0.63993670     0.04100
C85         C  0.78785300  0.97508789  0.62688446    -0.12100
C86         C  0.78549402  0.99802587  0.61353993     0.01600
C87         C  0.75883636  0.02117099  0.61313430    -0.10600
C88         C  0.73478566  0.02161780  0.62608448     0.04100
C89         C  0.73778103  0.99882080  0.63952239    -0.10000
H90         H  0.80762912  0.95635875  0.62676088     0.09700
H91         H  0.75732097  0.03938654  0.60302974     0.07200
H92         H  0.71921572  0.99909982  0.64954245     0.07000
O93         O  0.52539277  0.52744127  0.98036815    -0.70800
O94         O  0.46149422  0.53023017  0.01628144    -0.71100
O95         O  0.52928007  0.52935520  0.01424287    -0.70900
O96         O  0.45747186  0.52837843  0.98246487    -0.70900
O97         O  0.45712663  0.47373964  0.98315069    -0.70900
O98         O  0.52871939  0.47475607  0.01477435    -0.70900
O99         O  0.46119352  0.47567132  0.01701707    -0.70800
O100        O  0.52441578  0.47289871  0.98111440    -0.71000
V101        V  0.49339805  0.52782927  0.99834895     1.35200
V102        V  0.49282726  0.47537050  0.99902115     1.35200
C103        C  0.53595665  0.49958665  0.97463030     0.78400
C104        C  0.45035342  0.50335877  0.02278907     0.78500
C105        C  0.54151705  0.50214027  0.01980086     0.78300
C106        C  0.44503918  0.50082362  0.97740449     0.78300
C107        C  0.75966656  0.45813735  0.86949335     0.04100
C108        C  0.73636196  0.46043183  0.88273213    -0.12100
C109        C  0.71269475  0.48660008  0.88315919     0.01600
C110        C  0.71272057  0.51099491  0.87032921    -0.10600
C111        C  0.73583926  0.50919408  0.85692216     0.04100
C112        C  0.75901910  0.48240728  0.85660588    -0.10000
H113        H  0.73681729  0.44209706  0.89280495     0.09700
H114        H  0.69529844  0.53185137  0.87113375     0.07200
H115        H  0.77703849  0.48063476  0.84638595     0.07000
C116        C  0.21180373  0.47723972  0.87621012     0.04100
C117        C  0.21206913  0.50308315  0.86412818    -0.12100
C118        C  0.23715818  0.52806930  0.86439242     0.01600
C119        C  0.26229839  0.52688394  0.87679623    -0.10600
C120        C  0.26284459  0.50089691  0.88873824     0.04100
C121        C  0.23735694  0.47638683  0.88845388    -0.10000
H122        H  0.19336189  0.50325214  0.85420652     0.09700
H123        H  0.28178788  0.54583709  0.87695621     0.07200
H124        H  0.23764316  0.45629315  0.89769939     0.07000
O125        O  0.77950689  0.22558025  0.23204720    -0.70800
O126        O  0.78588991  0.29267688  0.26660069    -0.71100
O127        O  0.78234050  0.22495633  0.26611482    -0.70900
O128        O  0.78322381  0.29287527  0.23242340    -0.70900
O129        O  0.72886426  0.29699224  0.23437680    -0.70900
O130        O  0.72785967  0.22654922  0.26668383    -0.70900
O131        O  0.73144836  0.29390479  0.26801921    -0.70800
O132        O  0.72516290  0.22972329  0.23287226    -0.71000
V133        V  0.78175501  0.25906552  0.24934376     1.35200
V134        V  0.72944600  0.26171839  0.25046330     1.35200
C135        C  0.75107773  0.21665769  0.22636253     0.78400
C136        C  0.75948536  0.30460316  0.27328991     0.78500
C137        C  0.75497060  0.21397465  0.27212778     0.78300
C138        C  0.75608989  0.30645028  0.22767959     0.78300
O139        O  0.45909040  0.97438596  0.98447232    -0.70800
O140        O  0.52864217  0.97544426  0.01725069    -0.71100
O141        O  0.46091203  0.97492385  0.01814927    -0.70900
O142        O  0.52660068  0.97468033  0.98335248    -0.70900
O143        O  0.52688813  0.02931728  0.98350035    -0.70900
O144        O  0.46024622  0.02955866  0.01768652    -0.70900
O145        O  0.52775202  0.03004480  0.01746329    -0.70800
O146        O  0.45993443  0.02913201  0.98380903    -0.71000
V147        V  0.49388689  0.97590402  0.00082192     1.35200
V148        V  0.49373123  0.02844140  0.00064781     1.35200
C149        C  0.44794271  0.00165163  0.97851544     0.78400
C150        C  0.53994691  0.00290491  0.02307921     0.78500
C151        C  0.44898852  0.00229595  0.02368243     0.78300
C152        C  0.53760782  0.00198695  0.97731430     0.78300
C153        C  0.27002418  0.99482362  0.88896362     0.04100
C154        C  0.24366868  0.01824663  0.88891142    -0.12100
C155        C  0.22194908  0.02100380  0.87509505     0.01600
C156        C  0.22518204  0.99812006  0.86165604    -0.10600
C157        C  0.25070271  0.97365309  0.86176687     0.04100
C158        C  0.27359412  0.97281979  0.87525557    -0.10000
H159        H  0.24007420  0.03444746  0.89975509     0.09700
H160        H  0.20739033  0.99888490  0.85133154     0.07200
H161        H  0.29431259  0.95518912  0.87492512     0.07000
C162        C  0.70630542  0.00748139  0.88232944     0.04100
C163        C  0.70653827  0.98155291  0.87024655    -0.12100
C164        C  0.73255145  0.97935290  0.85832710     0.01600
C165        C  0.75837503  0.00342634  0.85852375    -0.10600
C166        C  0.75888025  0.02927295  0.87058188     0.04100
C167        C  0.73273092  0.03111750  0.88247070    -0.10000
H168        H  0.68755252  0.96206185  0.87069509     0.09700
H169        H  0.77856695  0.00170038  0.84936690     0.07200
H170        H  0.73344682  0.05028317  0.89218436     0.07000
O171        O  0.22309587  0.29261476  0.26836449    -0.70800
O172        O  0.21672069  0.22624572  0.23383444    -0.71100
O173        O  0.21969649  0.22517491  0.26773295    -0.70900
O174        O  0.22006936  0.29408220  0.23448170    -0.70900
O175        O  0.27444214  0.29143282  0.23290995    -0.70900
O176        O  0.27413603  0.22352837  0.26676175    -0.70900
O177        O  0.27114808  0.22366289  0.23291954    -0.70800
O178        O  0.27759108  0.29117027  0.26663955    -0.71000
V179        V  0.22093831  0.25955354  0.25104184     1.35200
V180        V  0.27325656  0.25741714  0.24981700     1.35200
C181        C  0.25142571  0.30312926  0.27339128     0.78400
C182        C  0.24298827  0.21329138  0.22759327     0.78500
C183        C  0.24694099  0.21272980  0.27309138     0.78300
C184        C  0.24721588  0.30475309  0.22807136     0.78300
C185        C  0.24142379  0.03399320  0.13713502     0.04100
C186        C  0.26898234  0.03141998  0.12615782    -0.12100
C187        C  0.27065580  0.00541487  0.11419316     0.01600
C188        C  0.24458032  0.98152124  0.11346052    -0.10600
C189        C  0.21646909  0.98409451  0.12408899     0.04100
C190        C  0.21522900  0.01041121  0.13594095    -0.10000
H191        H  0.28889531  0.04986358  0.12681832     0.09700
H192        H  0.24638279  0.96079540  0.10462914     0.07200
H193        H  0.19369888  0.01266742  0.14426173     0.07000
C194        C  0.75798899  0.97426828  0.13204910     0.04100
C195        C  0.75808865  0.00166077  0.14327168    -0.12100
C196        C  0.73266445  0.02633153  0.14256711     0.01600
C197        C  0.70772516  0.02373660  0.13002884    -0.10600
C198        C  0.70776642  0.99681800  0.11849606     0.04100
C199        C  0.73278280  0.97198477  0.11973941    -0.10000
H200        H  0.77844530  0.00409864  0.15225070     0.09700
H201        H  0.68883582  0.04323904  0.12893124     0.07200
H202        H  0.73327584  0.95137652  0.11075548     0.07000
C203        C  0.76996074  0.53003692  0.12179876     0.04100
C204        C  0.76827690  0.50786886  0.13545678    -0.12100
C205        C  0.74375986  0.48243290  0.13614175     0.01600
C206        C  0.72000187  0.47997370  0.12304983    -0.10600
C207        C  0.72040528  0.50289342  0.10954471     0.04100
C208        C  0.74563044  0.52775773  0.10900806    -0.10000
H209        H  0.78613707  0.51055149  0.14568514     0.09700
H210        H  0.70208111  0.45950576  0.12299658     0.07200
H211        H  0.74644636  0.54532135  0.09856114     0.07000
C212        C  0.21860272  0.53291603  0.12408075     0.04100
C213        C  0.21795485  0.50845134  0.13683437    -0.12100
C214        C  0.24100823  0.48169231  0.13678244     0.01600
C215        C  0.26538081  0.47987087  0.12402674    -0.10600
C216        C  0.26672595  0.50424776  0.11122536     0.04100
C217        C  0.24298757  0.53057819  0.11124792    -0.10000
H218        H  0.19893585  0.50972263  0.14659684     0.09700
H219        H  0.28375087  0.45973237  0.12422787     0.07200
H220        H  0.24394972  0.54972006  0.10155283     0.07000
C221        C  0.26939424  0.96869199  0.36846382     0.04100
C222        C  0.27135784  0.99548056  0.35685446    -0.12100
C223        C  0.24753052  0.02172814  0.35712027     0.01600
C224        C  0.22234995  0.02162111  0.36956568    -0.10600
C225        C  0.22035954  0.99559004  0.38146878     0.04100
C226        C  0.24325514  0.96881213  0.38044270    -0.10000
H227        H  0.29215903  0.99688815  0.34814220     0.09700
H228        H  0.20447285  0.04220720  0.37013688     0.07200
H229        H  0.24080677  0.94797062  0.38913833     0.07000
C230        C  0.78234595  0.00259794  0.38482436     0.04100
C231        C  0.78375210  0.02746971  0.37226041    -0.12100
C232        C  0.75860107  0.02933190  0.35986983     0.01600
C233        C  0.73221363  0.00584794  0.35989996    -0.10600
C234        C  0.73080053  0.98045591  0.37219717     0.04100
C235        C  0.75560181  0.97952257  0.38478979    -0.10000
H236        H  0.80360729  0.04611555  0.37246602     0.09700
H237        H  0.71286884  0.00728768  0.35028751     0.07200
H238        H  0.75396505  0.96095999  0.39473456     0.07000
C239        C  0.77447994  0.49836299  0.39358883     0.04100
C240        C  0.77681459  0.47800870  0.37914940    -0.12100
C241        C  0.75207426  0.47894049  0.36650685     0.01600
C242        C  0.72564396  0.50231107  0.36785924    -0.10600
C243        C  0.72391590  0.52437807  0.38169564     0.04100
C244        C  0.74783058  0.52162205  0.39466821    -0.10000
H245        H  0.79825418  0.46163126  0.37748382     0.09700
H246        H  0.70672543  0.50369340  0.35809657     0.07200
H247        H  0.74578950  0.53808264  0.40553599     0.07000
C248        C  0.29409117  0.51731822  0.38328684     0.04100
C249        C  0.29219769  0.49400767  0.36993635    -0.12100
C250        C  0.26672986  0.46943882  0.36955574     0.01600
C251        C  0.24359591  0.46791858  0.38283565    -0.10600
C252        C  0.24450735  0.49142777  0.39603823     0.04100
C253        C  0.26987630  0.51601164  0.39621022    -0.10000
H254        H  0.30967797  0.49576167  0.35951177     0.09700
H255        H  0.22450017  0.44846180  0.38285429     0.07200
H256        H  0.27014443  0.53489085  0.40606610     0.07000
O257        O  0.96066419  0.72276080  0.10788976    -0.70800
O258        O  0.02329306  0.79505084  0.10908006    -0.71100
O259        O  0.02842001  0.72742740  0.10767141    -0.70900
O260        O  0.95559982  0.79044565  0.10950593    -0.70900
O261        O  0.95931698  0.79079109  0.13676136    -0.70900
O262        O  0.02583583  0.72245998  0.13488032    -0.70900
O263        O  0.02734837  0.78976315  0.13626739    -0.70800
O264        O  0.95845726  0.72341193  0.13520859    -0.71000
V265        V  0.99202593  0.75890068  0.10902340     1.35200
V266        V  0.99272946  0.75671884  0.13525229     1.35200
C267        C  0.94825899  0.71120251  0.12137140     0.78400
C268        C  0.03678304  0.80393923  0.12281251     0.78500
C269        C  0.03893672  0.71356416  0.12106105     0.78300
C270        C  0.94517487  0.80164806  0.12354869     0.78300
O271        O  0.53852017  0.79167076  0.39151662    -0.70800
O272        O  0.47091057  0.72365040  0.39206953    -0.71100
O273        O  0.53833830  0.72361904  0.39338985    -0.70900
O274        O  0.47109942  0.79155262  0.39037075    -0.70900
O275        O  0.46995926  0.78527720  0.36315527    -0.70900
O276        O  0.54280773  0.72349908  0.36612294    -0.70900
O277        O  0.47551753  0.71800562  0.36498359    -0.70800
O278        O  0.53737798  0.79085969  0.36419888    -0.71000
V279        V  0.50475259  0.75755287  0.39133662     1.35200
V280        V  0.50643536  0.75452121  0.36513212     1.35200
C281        C  0.54891502  0.80353711  0.37766270     0.78400
C282        C  0.46219800  0.70860104  0.37865245     0.78500
C283        C  0.55231507  0.71218214  0.38025045     0.78300
C284        C  0.45853950  0.79936251  0.37626731     0.78300
O285        O  0.54049367  0.27968671  0.61396703    -0.70800
O286        O  0.47413063  0.21089444  0.61100970    -0.71100
O287        O  0.47299844  0.27855528  0.61234884    -0.70900
O288        O  0.54166506  0.21183779  0.61269989    -0.70900
O289        O  0.53879955  0.20939803  0.63996850    -0.70900
O290        O  0.47140427  0.27693654  0.63965957    -0.70900
O291        O  0.47160901  0.20936916  0.63830861    -0.70800
O292        O  0.53883980  0.27734912  0.64125020    -0.71000
V293        V  0.50735181  0.24520939  0.61302889     1.35200
V294        V  0.50519773  0.24331179  0.63925954     1.35200
C295        C  0.55092474  0.29052001  0.62805820     0.78400
C296        C  0.46148823  0.19834896  0.62420522     0.78500
C297        C  0.46053016  0.28925002  0.62601329     0.78300
C298        C  0.55160522  0.19880472  0.62638302     0.78300
O299        O  0.02718764  0.27883462  0.88467273    -0.70800
O300        O  0.96181766  0.20927967  0.88576588    -0.71100
O301        O  0.02932335  0.21132602  0.88569067    -0.70900
O302        O  0.95965207  0.27664592  0.88449690    -0.70900
O303        O  0.96040569  0.27549225  0.85718339    -0.70900
O304        O  0.02905895  0.20893121  0.85839274    -0.70900
O305        O  0.96149008  0.20770244  0.85844374    -0.70800
O306        O  0.02851754  0.27668690  0.85735931    -0.71000
V307        V  0.99455022  0.24402462  0.88460508     1.35200
V308        V  0.99484505  0.24227905  0.85835167     1.35200
C309        C  0.03933208  0.28953329  0.87096058     0.78400
C310        C  0.95029488  0.19661073  0.87233619     0.78500
C311        C  0.04091851  0.19865668  0.87224207     0.78300
C312        C  0.94788017  0.28713657  0.87064207     0.78300
C313        C  0.37632317  0.56669221  0.38030244    -0.13400
C314        C  0.36473858  0.59985672  0.38216221     0.17000
C315        C  0.33004010  0.60565859  0.38427086     0.03300
C316        C  0.30768723  0.57842629  0.38479854    -0.11900
C317        C  0.31914264  0.54515353  0.38299955    -0.03000
C318        C  0.35391321  0.53939476  0.38068701     0.02500
C319        C  0.38920372  0.62801756  0.38136747     0.09300
N320        N  0.31684234  0.63908956  0.38496086     0.65700
H321        H  0.28109618  0.58338608  0.38615124     0.18600
N322        N  0.36706047  0.50601994  0.37929659     0.76200
H323        H  0.40289660  0.56199511  0.37865592     0.10100
C324        C  0.39738031  0.64735152  0.39569969     0.03800
C325        C  0.42075216  0.67362201  0.39442618    -0.04900
C326        C  0.43704569  0.68077681  0.37911047    -0.23300
C327        C  0.42921094  0.66079090  0.36480716     0.13100
C328        C  0.40532990  0.63491357  0.36605938    -0.12400
N329        N  0.38378338  0.63936491  0.41187495     0.64700
H330        H  0.42662759  0.68801129  0.40563540     0.12600
N331        N  0.44593699  0.66549764  0.34904653     0.61400
H332        H  0.39959544  0.61984579  0.35504624     0.08800
O333        O  0.37677584  0.49098485  0.39242114    -0.40100
O334        O  0.37608420  0.49508270  0.36505362    -0.39300
O335        O  0.31007375  0.65408750  0.37136779    -0.39300
O336        O  0.30432634  0.64981307  0.39855933    -0.37000
O337        O  0.47151090  0.64794469  0.34565309    -0.37900
O338        O  0.43112176  0.68102993  0.33733892    -0.34000
O339        O  0.39815474  0.61726783  0.42072753    -0.35400
O340        O  0.36382260  0.65973927  0.41886666    -0.39700
C341        C  0.64227720  0.57469323  0.38016781    -0.13400
C342        C  0.65439854  0.60784884  0.38137001     0.17000
C343        C  0.68931024  0.61317866  0.38312389     0.03300
C344        C  0.71132723  0.58561589  0.38319948    -0.11900
C345        C  0.69924750  0.55248027  0.38190700    -0.03000
C346        C  0.66429241  0.54709901  0.38054832     0.02500
C347        C  0.62985126  0.63611110  0.38143424     0.09300
N348        N  0.70271718  0.64615461  0.38578765     0.65700
H349        H  0.73804719  0.59010544  0.38444309     0.18600
N350        N  0.65062180  0.51382848  0.38055131     0.76200
H351        H  0.61551222  0.57021361  0.37917395     0.10100
C352        C  0.62870212  0.66024952  0.36840570     0.03800
C353        C  0.60362490  0.68506875  0.36845900    -0.04900
C354        C  0.57917969  0.68629670  0.38121670    -0.23300
C355        C  0.58046802  0.66223076  0.39430161     0.13100
C356        C  0.60573948  0.63759807  0.39433019    -0.12400
N357        N  0.65141158  0.65877246  0.35446832     0.64700
H358        H  0.60292865  0.70311184  0.35826572     0.12600
N359        N  0.55503403  0.66091914  0.40700512     0.61400
H360        H  0.60603526  0.61895443  0.40425903     0.08800
O361        O  0.63925525  0.50150389  0.36703048    -0.40100
O362        O  0.64319558  0.50017186  0.39441098    -0.39300
O363        O  0.70118210  0.65897800  0.40033354    -0.39300
O364        O  0.72307093  0.65823336  0.37520129    -0.37000
O365        O  0.52849444  0.64434393  0.40427736    -0.37900
O366        O  0.56190199  0.67017304  0.42183649    -0.34000
O367        O  0.64496896  0.63911772  0.34237508    -0.35400
O368        O  0.67186637  0.68263386  0.35220229    -0.39700
C369        C  0.60912048  0.87492564  0.38973680    -0.13400
C370        C  0.62134871  0.88434605  0.37388355     0.17000
C371        C  0.60964805  0.86749095  0.35942620     0.03300
C372        C  0.58597581  0.84159666  0.36099315    -0.11900
C373        C  0.57382016  0.83156083  0.37688290    -0.03000
C374        C  0.58573085  0.84868173  0.39139489     0.02500
C375        C  0.64884019  0.90933442  0.37288931     0.09300
N376        N  0.62218701  0.87581633  0.34308134     0.65700
H377        H  0.57750030  0.82900398  0.34966007     0.18600
N378        N  0.57512420  0.83939087  0.40794474     0.76200
H379        H  0.61849349  0.88741983  0.40092687     0.10100
C380        C  0.64247439  0.94413898  0.37198593     0.03800
C381        C  0.66942498  0.96692649  0.37143343    -0.04900
C382        C  0.70287792  0.95553149  0.37220777    -0.23300
C383        C  0.70903780  0.92054922  0.37338892     0.13100
C384        C  0.68208790  0.89786705  0.37356013    -0.12400
N385        N  0.60882084  0.95670146  0.37211863     0.64700
H386        H  0.66420017  0.99361633  0.37087198     0.12600
N387        N  0.74249938  0.90753664  0.37423727     0.61400
H388        H  0.68710827  0.87115803  0.37438497     0.08800
O389        O  0.59242633  0.81855608  0.41623371    -0.40100
O390        O  0.55372296  0.85732747  0.41551954    -0.39300
O391        O  0.64435035  0.85739861  0.33639772    -0.39300
O392        O  0.60615738  0.89641816  0.33404514    -0.37000
O393        O  0.75345433  0.89624190  0.38804938    -0.37900
O394        O  0.75796196  0.90070603  0.36077666    -0.34000
O395        O  0.59493422  0.96362412  0.38599943    -0.35400
O396        O  0.59554558  0.96661668  0.35856155    -0.39700
C397        C  0.33464139  0.90137304  0.35674799    -0.13400
C398        C  0.34603586  0.89147908  0.37273069     0.17000
C399        C  0.33224355  0.90706842  0.38712133     0.03300
C400        C  0.30776271  0.93211834  0.38533970    -0.11900
C401        C  0.29588780  0.94196201  0.36935871    -0.03000
C402        C  0.30974745  0.92616593  0.35492378     0.02500
C403        C  0.37423370  0.86700529  0.37403461     0.09300
N404        N  0.34235740  0.89734375  0.40370447     0.65700
H405        H  0.29822311  0.94409038  0.39659345     0.18600
N406        N  0.29883691  0.93454691  0.33829675     0.76200
H407        H  0.34546269  0.89015979  0.34559536     0.10100
C408        C  0.37257237  0.83471139  0.36659197     0.03800
C409        C  0.40063244  0.81335925  0.36710612    -0.04900
C410        C  0.43035173  0.82339270  0.37519965    -0.23300
C411        C  0.43211851  0.85561502  0.38259799     0.13100
C412        C  0.40424876  0.87715185  0.38188848    -0.12400
N413        N  0.34224793  0.82275057  0.35898086     0.64700
H414        H  0.39891362  0.78855403  0.36155418     0.12600
N415        N  0.46267771  0.86764093  0.38993750     0.61400
H416        H  0.40637975  0.90219787  0.38708413     0.08800
O417        O  0.31889022  0.94961476  0.32855881    -0.40100
O418        O  0.27370389  0.91953700  0.33212856    -0.39300
O419        O  0.36162468  0.91634386  0.41205158    -0.39300
O420        O  0.32611520  0.87462826  0.41125682    -0.37000
O421        O  0.46517676  0.86966601  0.40576179    -0.37900
O422        O  0.48368081  0.88289318  0.38079167    -0.34000
O423        O  0.34023616  0.82102585  0.34312779    -0.35400
O424        O  0.32119068  0.80699472  0.36787389    -0.39700
C425        C  0.16099672  0.60573473  0.13645405    -0.13400
C426        C  0.13946659  0.60735581  0.12243530     0.17000
C427        C  0.14464177  0.58479002  0.10892133     0.03300
C428        C  0.17110891  0.56148255  0.10952385    -0.11900
C429        C  0.19239262  0.55960365  0.12360460    -0.03000
C430        C  0.18707312  0.58197557  0.13721466     0.02500
C431        C  0.11292404  0.63382355  0.12179382     0.09300
N432        N  0.12228115  0.58416544  0.09482731     0.65700
H433        H  0.17442584  0.54407734  0.09916471     0.18600
N434        N  0.20865795  0.58179287  0.15162513     0.76200
H435        H  0.15794632  0.62335639  0.14672306     0.10100
C436        C  0.08834493  0.63670903  0.13452602     0.03800
C437        C  0.06476234  0.66285027  0.13396375    -0.04900
C438        C  0.06499507  0.68672578  0.12090676    -0.23300
C439        C  0.08992236  0.68421426  0.10828848     0.13100
C440        C  0.11343001  0.65780053  0.10877639    -0.12400
N441        N  0.08650244  0.61290151  0.14797924     0.64700
H442        H  0.04589519  0.66419405  0.14375272     0.12600
N443        N  0.09322360  0.70944130  0.09558002     0.61400
H444        H  0.13281145  0.65663312  0.09924891     0.08800
O445        O  0.19808030  0.56959673  0.16531126    -0.40100
O446        O  0.23425659  0.60057120  0.15177908    -0.39300
O447        O  0.13218455  0.59505991  0.08074839    -0.39300
O448        O  0.09598726  0.56643095  0.09554113    -0.37000
O449        O  0.11198561  0.73451676  0.09826412    -0.37900
O450        O  0.08356979  0.70320697  0.08074859    -0.34000
O451        O  0.09689112  0.62119560  0.16243679    -0.35400
O452        O  0.06768581  0.58749737  0.14644305    -0.39700
C453        C  0.85456929  0.57508911  0.12378062    -0.13400
C454        C  0.84459161  0.60871352  0.12194634     0.17000
C455        C  0.81030328  0.61624403  0.11962763     0.03300
C456        C  0.78650442  0.59025154  0.11938307    -0.11900
C457        C  0.79629757  0.55654926  0.12136798    -0.03000
C458        C  0.83082202  0.54900239  0.12348254     0.02500
C459        C  0.87057759  0.63537410  0.12181563     0.09300
N460        N  0.79932689  0.65007747  0.11705909     0.65700
H461        H  0.76023362  0.59645986  0.11777474     0.18600
N462        N  0.84237458  0.51498727  0.12460666     0.76200
H463        H  0.88092043  0.56908287  0.12526886     0.10100
C464        C  0.87651746  0.65577503  0.13602934     0.03800
C465        C  0.90194015  0.68014520  0.13559245    -0.04900
C466        C  0.92196530  0.68461830  0.12115945    -0.23300
C467        C  0.91612398  0.66379413  0.10695928     0.13100
C468        C  0.89054958  0.63949047  0.10741670    -0.12400
N469        N  0.85767520  0.65135649  0.15119689     0.64700
H470        H  0.90597083  0.69562025  0.14664604     0.12600
N471        N  0.93661990  0.66604605  0.09221268     0.61400
H472        H  0.88645976  0.62351186  0.09654285     0.08800
O473        O  0.85243619  0.50379888  0.13860711    -0.40100
O474        O  0.85003150  0.49939853  0.11127495    -0.39300
O475        O  0.79621929  0.66095197  0.10220719    -0.39300
O476        O  0.78521994  0.66566457  0.12898435    -0.37000
O477        O  0.96266253  0.64804277  0.09105143    -0.37900
O478        O  0.92532753  0.68053819  0.07925170    -0.34000
O479        O  0.86877430  0.63182988  0.16242378    -0.35400
O480        O  0.83522416  0.67247566  0.15500022    -0.39700
C481        C  0.80723231  0.89280263  0.13728043    -0.13400
C482        C  0.83864983  0.90174778  0.13051153     0.17000
C483        C  0.84343115  0.93498046  0.12465780     0.03300
C484        C  0.81713990  0.95846008  0.12564471    -0.11900
C485        C  0.78572434  0.94934501  0.13221656    -0.03000
C486        C  0.78084164  0.91625813  0.13809853     0.02500
C487        C  0.86558036  0.87579809  0.12886750     0.09300
N488        N  0.87494574  0.94534421  0.11775260     0.65700
H489        H  0.82107884  0.98373574  0.12101101     0.18600
N490        N  0.74917122  0.90615709  0.14491428     0.76200
H491        H  0.80295199  0.86738161  0.14159555     0.10100
C492        C  0.87914822  0.85924764  0.14302499     0.03800
C493        C  0.90485201  0.83537981  0.14095380    -0.04900
C494        C  0.91715742  0.82671678  0.12485582    -0.23300
C495        C  0.90233739  0.84228542  0.11063007     0.13100
C496        C  0.87718052  0.86677164  0.11277083    -0.12400
N497        N  0.86740932  0.86665307  0.15964955     0.64700
H498        H  0.91512450  0.82354917  0.15208079     0.12600
N499        N  0.91190295  0.83321633  0.09387786     0.61400
H500        H  0.86619270  0.87836716  0.10175533     0.08800
O501        O  0.72841361  0.89056447  0.13574090    -0.40100
O502        O  0.74420438  0.90806099  0.16059566    -0.39300
O503        O  0.87836654  0.94714059  0.10196574    -0.39300
O504        O  0.89640425  0.95922686  0.12720206    -0.37000
O505        O  0.89552180  0.81067979  0.08621079    -0.37900
O506        O  0.93104667  0.85243048  0.08563232    -0.34000
O507        O  0.84713859  0.84672328  0.16672176    -0.35400
O508        O  0.88253493  0.88847074  0.16840039    -0.39700
C509        C  0.11721804  0.85229348  0.13154497    -0.13400
C510        C  0.11068152  0.88303566  0.12342708     0.17000
C511        C  0.07988979  0.88702708  0.11473748     0.03300
C512        C  0.05637655  0.86073501  0.11448896    -0.11900
C513        C  0.06261464  0.83055535  0.12305791    -0.03000
C514        C  0.09338575  0.82632430  0.13158945     0.02500
C515        C  0.13691253  0.90984607  0.12367061     0.09300
N516        N  0.07156644  0.91791782  0.10652677     0.65700
H517        H  0.03282756  0.86422436  0.10793236     0.18600
N518        N  0.10161744  0.79515382  0.13955882     0.76200
H519        H  0.14113895  0.84814656  0.13759995     0.10100
C520        C  0.15180357  0.92066108  0.13890965     0.03800
C521        C  0.17771287  0.94449301  0.13867965    -0.04900
C522        C  0.18904571  0.95857574  0.12348603    -0.23300
C523        C  0.17396422  0.94801796  0.10821175     0.13100
C524        C  0.14849512  0.92355926  0.10842345    -0.12400
N525        N  0.14032787  0.90834920  0.15481926     0.65500
H526        H  0.18898759  0.95206543  0.15049112     0.12600
N527        N  0.18307104  0.96284300  0.09244870     0.61400
H528        H  0.13787204  0.91520031  0.09661813     0.08800
O529        O  0.10099652  0.79318307  0.15542696    -0.40100
O530        O  0.11634342  0.77252487  0.13116929    -0.39300
O531        O  0.07101588  0.91898332  0.09063006    -0.39300
O532        O  0.05721759  0.94090762  0.11483347    -0.37000
O533        O  0.20040590  0.94611416  0.08207412    -0.37900
O534        O  0.16746052  0.98858307  0.08740829    -0.34000
O535        O  0.15865264  0.88845974  0.16313933    -0.35400
O536        O  0.11597779  0.92276441  0.16202525    -0.39700
C537        C  0.27280750  0.37672016  0.19864969    -0.13400
C538        C  0.24195773  0.38417655  0.19095439     0.17000
C539        C  0.21324115  0.36558743  0.19549426     0.03300
C540        C  0.21565880  0.34002413  0.20755297    -0.11900
C541        C  0.24652899  0.33209914  0.21524162    -0.03000
C542        C  0.27542061  0.35084247  0.21062401     0.02500
C543        C  0.24070626  0.40961693  0.17730402     0.09300
N544        N  0.18125945  0.37264960  0.18810230     0.65700
H545        H  0.19316842  0.32619451  0.21080897     0.18600
N546        N  0.30759325  0.34416459  0.21791380     0.76200
H547        H  0.29508747  0.39059175  0.19508979     0.10100
C548        C  0.24555716  0.44417322  0.18055512     0.03800
C549        C  0.24512857  0.46729387  0.16722250    -0.04900
C550        C  0.24050946  0.45644656  0.15052866    -0.23300
C551        C  0.23585985  0.42180986  0.14727243     0.13100
C552        C  0.23577758  0.39877829  0.16064330    -0.12400
N553        N  0.25058772  0.45621146  0.19734475     0.64700
H554        H  0.24882728  0.49372775  0.16987735     0.12600
N555        N  0.23044236  0.40969609  0.13051629     0.61400
H556        H  0.23222534  0.37232440  0.15800728     0.08800
O557        O  0.31806700  0.36259082  0.22977339    -0.40100
O558        O  0.32825761  0.32595593  0.20999353    -0.39300
O559        O  0.16947142  0.35289916  0.17711166    -0.39300
O560        O  0.16207937  0.39379341  0.19507532    -0.37000
O561        O  0.25447800  0.39633027  0.12256986    -0.37900
O562        O  0.20075974  0.40557361  0.12527834    -0.34000
O563        O  0.27989825  0.46352200  0.20223106    -0.35400
O564        O  0.22563752  0.46614200  0.20582069    -0.39700
C565        C  0.24748536  0.11839563  0.15975346    -0.13400
C566        C  0.24219539  0.10869595  0.17653246     0.17000
C567        C  0.23565471  0.07465084  0.18021994     0.03300
C568        C  0.23503523  0.05081208  0.16719779    -0.11900
C569        C  0.24063938  0.06038964  0.15039019    -0.03000
C570        C  0.24647875  0.09465591  0.14668546     0.02500
C571        C  0.24252910  0.13475812  0.18989951     0.09300
N572        N  0.23057128  0.06376238  0.19718365     0.65700
H573        H  0.23081425  0.02465648  0.17026619     0.18600
N574        N  0.24956313  0.10602968  0.12967066     0.76200
H575        H  0.25161954  0.14460087  0.15676701     0.10100
C576        C  0.27199986  0.15286576  0.19364337     0.03800
C577        C  0.27136711  0.17831158  0.20583343    -0.04900
C578        C  0.24154932  0.18660588  0.21442563    -0.23300
C579        C  0.21179082  0.16866008  0.21044541     0.13100
C580        C  0.21262729  0.14283208  0.19835037    -0.12400
N581        N  0.30298430  0.14530286  0.18534996     0.64700
H582        H  0.29447310  0.19163141  0.20854309     0.12600
N583        N  0.18054176  0.17613337  0.21850707     0.61400
H584        H  0.18973122  0.12940819  0.19533643     0.08800
O585        O  0.27754981  0.11667552  0.12441050    -0.40100
O586        O  0.22333450  0.11187348  0.12121004    -0.39300
O587        O  0.20124006  0.05697971  0.20220035    -0.39300
O588        O  0.25550576  0.05469791  0.20590526    -0.37000
O589        O  0.16030260  0.19623335  0.21153644    -0.37900
O590        O  0.17023471  0.15744002  0.23026661    -0.34000
O591        O  0.31361222  0.16458866  0.17390641    -0.35400
O592        O  0.32258838  0.12379067  0.19168251    -0.39700
C593        C  0.28115168  0.37425520  0.30183433    -0.13400
C594        C  0.25886529  0.37119458  0.31547478     0.17000
C595        C  0.23340462  0.34638870  0.31476696     0.03300
C596        C  0.23101330  0.32507893  0.30074930    -0.11900
C597        C  0.25382050  0.32763537  0.28735087    -0.03000
C598        C  0.27899369  0.35262774  0.28791057     0.02500
C599        C  0.26111269  0.39565855  0.32966113     0.09300
N600        N  0.21024468  0.34185295  0.32834429     0.65700
H601        H  0.21174077  0.30587059  0.30055422     0.18600
N602        N  0.30104513  0.35795565  0.27396113     0.76200
H603        H  0.29972084  0.39408916  0.30175376     0.10100
C604        C  0.29163392  0.40183423  0.33826073     0.03800
C605        C  0.29305353  0.42637096  0.35095224    -0.04900
C606        C  0.26442252  0.44495409  0.35542983    -0.23300
C607        C  0.23394332  0.43899030  0.34673155     0.13100
C608        C  0.23265091  0.41471785  0.33393244    -0.12400
N609        N  0.32126664  0.38286144  0.33457472     0.64700
H610        H  0.31644964  0.43037742  0.35759703     0.12600
N611        N  0.20442242  0.45836979  0.35016242     0.61400
H612        H  0.20951142  0.41142145  0.32701542     0.08800
O613        O  0.33109421  0.34791051  0.27482267    -0.40100
O614        O  0.29295847  0.37911113  0.26283123    -0.39300
O615        O  0.18010892  0.35111846  0.32652363    -0.39300
O616        O  0.21750794  0.32158475  0.34001761    -0.37000
O617        O  0.19961212  0.48539280  0.34218201    -0.37900
O618        O  0.18004247  0.44473756  0.35771032    -0.34000
O619        O  0.34508501  0.39671724  0.32669056    -0.35400
O620        O  0.32669162  0.35582738  0.34244435    -0.39700
C621        C  0.25464437  0.07414618  0.31691581    -0.13400
C622        C  0.25269109  0.10692651  0.32340766     0.17000
C623        C  0.24972917  0.11162434  0.34092549     0.03300
C624        C  0.24874434  0.08365611  0.35166830    -0.11900
C625        C  0.25001025  0.05065179  0.34522128    -0.03000
C626        C  0.25293141  0.04607104  0.32759920     0.02500
C627        C  0.25141650  0.13562715  0.31152038     0.09300
N628        N  0.24700904  0.14462753  0.34796749     0.65700
H629        H  0.24668069  0.08776736  0.36510220     0.18600
N630        N  0.25166872  0.01325460  0.32021562     0.76200
H631        H  0.25620340  0.07034857  0.30343834     0.10100
C632        C  0.28089371  0.14971604  0.30477291     0.03800
C633        C  0.27877964  0.17480200  0.29242216    -0.04900
C634        C  0.24747298  0.18633320  0.28646900    -0.23300
C635        C  0.21781994  0.17229460  0.29348784     0.13100
C636        C  0.22010650  0.14724543  0.30590456    -0.12400
N637        N  0.31324234  0.13859153  0.31024446     0.64700
H638        H  0.30186064  0.18508218  0.28742808     0.12600
N639        N  0.18515498  0.18238811  0.28794433     0.61400
H640        H  0.19734518  0.13628317  0.31092091     0.08800
O641        O  0.22342676  0.99980011  0.31749138    -0.40100
O642        O  0.27731742  0.00183084  0.31280753    -0.39300
O643        O  0.21831169  0.15635741  0.35136452    -0.39300
O644        O  0.27281192  0.15870668  0.35398680    -0.37000
O645        O  0.17042782  0.16540661  0.27668543    -0.37900
O646        O  0.16836435  0.20276803  0.29679301    -0.34000
O647        O  0.32963620  0.11820792  0.30121695    -0.35400
O648        O  0.32803047  0.15424380  0.32195193    -0.39700
C649        C  0.81251364  0.10889243  0.87203135    -0.13400
C650        C  0.84510708  0.09537875  0.87183480     0.17000
C651        C  0.84922006  0.06015012  0.87170636     0.03300
C652        C  0.82086086  0.03915455  0.87130447    -0.11900
C653        C  0.78813468  0.05263318  0.87129480    -0.03000
C654        C  0.78414050  0.08793068  0.87180061     0.02500
C655        C  0.87415335  0.11882929  0.87221386     0.09300
N656        N  0.88187525  0.04528498  0.87276392     0.65700
H657        H  0.82441587  0.01216787  0.87132438     0.18600
N658        N  0.75152088  0.10297304  0.87141136     0.76200
H659        H  0.80910916  0.13590183  0.87220060     0.10100
C660        C  0.89403828  0.12490959  0.85783045     0.03800
C661        C  0.91888140  0.14997668  0.85823038    -0.04900
C662        C  0.92448131  0.16942284  0.87279329    -0.23300
C663        C  0.90495590  0.16262532  0.88734005     0.13100
C664        C  0.88008008  0.13761416  0.88687712    -0.12400
N665        N  0.88823970  0.10711461  0.84243583     0.64700
H666        H  0.93351133  0.15452337  0.84696896     0.12600
N667        N  0.90884967  0.18178052  0.90248103     0.61400
H668        H  0.86473797  0.13334269  0.89793482     0.08800
O669        O  0.73833965  0.11010104  0.85739625    -0.40100
O670        O  0.73944250  0.11549303  0.88472816    -0.39300
O671        O  0.89488456  0.04058738  0.88707950    -0.39300
O672        O  0.89362426  0.02980640  0.86017568    -0.37000
O673        O  0.89012222  0.20693245  0.90500355    -0.37900
O674        O  0.92500694  0.16934882  0.91466548    -0.34000
O675        O  0.86824159  0.11937849  0.83173226    -0.35400
O676        O  0.90901743  0.08495857  0.83779991    -0.39700
C677        C  0.10299197  0.12968822  0.85970445    -0.13400
C678        C  0.11560551  0.12019050  0.87547299     0.17000
C679        C  0.10445147  0.13709461  0.89002521     0.03300
C680        C  0.08036396  0.16262991  0.88866770    -0.11900
C681        C  0.06731085  0.17217069  0.87288710    -0.03000
C682        C  0.07931065  0.15559539  0.85824788     0.02500
C683        C  0.14213625  0.09419787  0.87625815     0.09300
N684        N  0.11701020  0.12826322  0.90630471     0.65700
H685        H  0.07184253  0.17491823  0.90006270     0.18600
N686        N  0.06833130  0.16499806  0.84176425     0.76200
H687        H  0.11214391  0.11740269  0.84842633     0.10100
C688        C  0.13570581  0.06065194  0.87148557     0.03800
C689        C  0.16197917  0.03725107  0.87107946    -0.04900
C690        C  0.19497451  0.04683558  0.87518382    -0.23300
C691        C  0.20139469  0.08066167  0.87984805     0.13100
C692        C  0.17493845  0.10385641  0.88050395    -0.12400
N693        N  0.10248919  0.04988579  0.86724051     0.64700
H694        H  0.15646054  0.01143490  0.86775052     0.12600
N695        N  0.23484242  0.09238525  0.88297124     0.61400
H696        H  0.18021263  0.12978329  0.88372115     0.08800
O697        O  0.04708047  0.14691003  0.83415649    -0.40100
O698        O  0.08487128  0.18663541  0.83359947    -0.39300
O699        O  0.13795336  0.14729841  0.91354079    -0.39300
O700        O  0.10252118  0.10547580  0.91465229    -0.37000
O701        O  0.25317613  0.10075577  0.87069369    -0.37900
O702        O  0.24322616  0.10109087  0.89769473    -0.34000
O703        O  0.09476939  0.04535373  0.85197467    -0.35400
O704        O  0.08348098  0.03860675  0.87864162    -0.39700
C705        C  0.59892910  0.02939805  0.05871478    -0.13400
C706        C  0.61667664  0.99944743  0.06151428     0.17000
C707        C  0.60985033  0.97117238  0.05132411     0.03300
C708        C  0.58523691  0.97313187  0.03874013    -0.11900
C709        C  0.56683720  0.00287194  0.03609045    -0.03000
C710        C  0.57420370  0.03140517  0.04615837     0.02500
C711        C  0.64034646  0.99774937  0.07591586     0.09300
N712        N  0.62626491  0.93970469  0.05417417     0.65700
H713        H  0.58013333  0.95096696  0.03121342     0.18600
N714        N  0.55589698  0.06214951  0.04438882     0.76200
H715        H  0.60381877  0.05115105  0.06658256     0.10100
C716        C  0.67541707  0.99607963  0.07357442     0.03800
C717        C  0.69680193  0.99506134  0.08761661    -0.04900
C718        C  0.68386771  0.99632265  0.10409432    -0.23300
C719        C  0.64872426  0.99822957  0.10639367     0.13100
C720        C  0.62733870  0.99882848  0.09234417    -0.12400
N721        N  0.68979707  0.99729983  0.05707860     0.64700
H722        H  0.72368103  0.99436887  0.08564251     0.12600
N723        N  0.63427193  0.99854558  0.12288050     0.61400
H724        H  0.60045788  0.00009192  0.09425063     0.08800
O725        O  0.56924142  0.08662090  0.03678537    -0.40100
O726        O  0.53014957  0.06711253  0.05334881    -0.39300
O727        O  0.61337382  0.91909935  0.06439104    -0.39300
O728        O  0.64742591  0.92920464  0.04354902    -0.37000
O729        O  0.62332148  0.02585622  0.12889460    -0.37900
O730        O  0.62553649  0.97108987  0.12955062    -0.34000
O731        O  0.69467317  0.02553088  0.05022802    -0.35400
O732        O  0.70460176  0.97168173  0.05129046    -0.39700
C733        C  0.37578488  0.97754706  0.05204053    -0.13400
C734        C  0.37262627  0.00640643  0.06212598     0.17000
C735        C  0.39503340  0.03345474  0.05971628     0.03300
C736        C  0.41960473  0.03156061  0.04712708    -0.11900
C737        C  0.42271236  0.00279273  0.03691314    -0.03000
C738        C  0.40051368  0.97548297  0.03952190     0.02500
C739        C  0.34645638  0.00722367  0.07541230     0.09300
N740        N  0.39281683  0.06327823  0.06975357     0.65700
H741        H  0.43644828  0.05266317  0.04542324     0.18600
N742        N  0.40201987  0.94583102  0.02932092     0.76200
H743        H  0.35908769  0.95641778  0.05396091     0.10100
C744        C  0.31214910  0.00332571  0.07141640     0.03800
C745        C  0.28820040  0.00233812  0.08427652    -0.04900
C746        C  0.29766507  0.00504108  0.10127449    -0.23300
C747        C  0.33211471  0.00877113  0.10531309     0.13100
C748        C  0.35611286  0.00987775  0.09237841    -0.12400
N749        N  0.30106200  0.00119279  0.05431344     0.64700
H750        H  0.26195076  0.00010814  0.08091245     0.12600
N751        N  0.34340491  0.00970725  0.12241971     0.61400
H752        H  0.38242619  0.01186700  0.09561219     0.08800
O753        O  0.38342500  0.94354334  0.01647536    -0.40100
O754        O  0.41582591  0.91968370  0.03510255    -0.39300
O755        O  0.41377124  0.06798816  0.08147447    -0.39300
O756        O  0.37520864  0.08762779  0.06464198    -0.37000
O757        O  0.35013941  0.98241436  0.12980240    -0.37900
O758        O  0.35450442  0.03696444  0.12844342    -0.34000
O759        O  0.29173446  0.97312917  0.04847247    -0.35400
O760        O  0.29312903  0.02780735  0.04662041    -0.39700
C761        C  0.60611814  0.97720417  0.94609365    -0.13400
C762        C  0.60810317  0.00632675  0.93620260     0.17000
C763        C  0.58602494  0.03326115  0.93943417     0.03300
C764        C  0.56347195  0.03133950  0.95293144    -0.11900
C765        C  0.56177554  0.00243312  0.96310437    -0.03000
C766        C  0.58291622  0.97483552  0.95931661     0.02500
C767        C  0.63317170  0.00783405  0.92246157     0.09300
N768        N  0.58638806  0.06284811  0.92921899     0.65700
H769        H  0.54697403  0.05245043  0.95532301     0.18600
N770        N  0.58149876  0.94435659  0.96881983     0.76200
H771        H  0.62250715  0.95612973  0.94344721     0.10100
C772        C  0.66784651  0.00894615  0.92598839     0.03800
C773        C  0.69111178  0.00931988  0.91275812    -0.04900
C774        C  0.68045694  0.00799601  0.89587680    -0.23300
C775        C  0.64560780  0.00617643  0.89239812     0.13100
C776        C  0.62234500  0.00642521  0.90567474    -0.12400
N777        N  0.67978151  0.00963007  0.94297719     0.64700
H778        H  0.71766667  0.00999784  0.91570693     0.12600
N779        N  0.63331604  0.00412709  0.87550662     0.61400
H780        H  0.59575277  0.00501710  0.90288455     0.08800
O781        O  0.60275360  0.93930522  0.98035248    -0.40100
O782        O  0.56410356  0.92005634  0.96339986    -0.39300
O783        O  0.56476031  0.06613041  0.91769253    -0.39300
O784        O  0.60297591  0.08820514  0.93400747    -0.37000
O785        O  0.62032234  0.97695166  0.87042674    -0.37900
O786        O  0.62788661  0.03089064  0.86741242    -0.34000
O787        O  0.68990751  0.98278025  0.94977349    -0.35400
O788        O  0.68576198  0.03751824  0.95000428    -0.39700
C789        C  0.39952259  0.01524053  0.93821140    -0.13400
C790        C  0.36777880  0.00268028  0.94268349     0.17000
C791        C  0.36268787  0.98966331  0.95901242     0.03300
C792        C  0.38943751  0.98883302  0.97046074    -0.11900
C793        C  0.42102273  0.00152372  0.96595052    -0.03000
C794        C  0.42605206  0.01498455  0.94976187     0.02500
C795        C  0.34130471  0.00095387  0.92964853     0.09300
N796        N  0.33027818  0.97830369  0.96431735     0.65700
H797        H  0.38536455  0.97903529  0.98299638     0.18600
N798        N  0.45838107  0.02684811  0.94460386     0.76200
H799        H  0.40395541  0.02440577  0.92559505     0.10100
C800        C  0.33044546  0.03001073  0.92111319     0.03800
C801        C  0.30759576  0.02714285  0.90785738    -0.04900
C802        C  0.29489202  0.99565098  0.90288352    -0.23300
C803        C  0.30592140  0.96641873  0.91139790     0.13100
C804        C  0.32896942  0.96936094  0.92467471    -0.12400
N805        N  0.34204829  0.06272280  0.92588285     0.64700
H806        H  0.29984634  0.04975333  0.90136034     0.12600
N807        N  0.29372721  0.93369353  0.90700151     0.61400
H808        H  0.33771094  0.94685409  0.93092581     0.08800
O809        O  0.46354414  0.05807910  0.94330892    -0.40100
O810        O  0.47914643  0.00644689  0.93823995    -0.39300
O811        O  0.32496418  0.94719559  0.96610466    -0.39300
O812        O  0.30981859  0.99917093  0.97054941    -0.37000
O813        O  0.26919727  0.92156269  0.91504157    -0.37900
O814        O  0.31240674  0.91414512  0.89864172    -0.34000
O815        O  0.36314685  0.07767822  0.91667296    -0.35400
O816        O  0.32559628  0.07940698  0.93662509    -0.39700
C817        C  0.71935489  0.42182959  0.17142867    -0.13400
C818        C  0.75099417  0.40973015  0.17644037     0.17000
C819        C  0.77986577  0.42105142  0.16776963     0.03300
C820        C  0.77663236  0.44397570  0.15453468    -0.11900
C821        C  0.74515019  0.45717547  0.14996204    -0.03000
C822        C  0.71625292  0.44594215  0.15865478     0.02500
C823        C  0.75314408  0.38407513  0.19006318     0.09300
N824        N  0.81286262  0.41038802  0.17252184     0.65700
H825        H  0.79906338  0.45173602  0.14790674     0.18600
N826        N  0.68373996  0.45966556  0.15527530     0.76200
H827        H  0.69687361  0.41271261  0.17749185     0.10100
C828        C  0.73594837  0.38789341  0.20556639     0.03800
C829        C  0.73713227  0.36219040  0.21760370    -0.04900
C830        C  0.75591675  0.33292529  0.21472707    -0.23300
C831        C  0.77322194  0.32908535  0.19936826     0.13100
C832        C  0.77122857  0.35426317  0.18710540    -0.12400
N833        N  0.71772868  0.41792155  0.20949009     0.64700
H834        H  0.72381367  0.36537720  0.22937653     0.12600
N835        N  0.79096416  0.29878258  0.19552405     0.61400
H836        H  0.78313833  0.35001973  0.17507558     0.08800
O837        O  0.66087974  0.44056791  0.14974955    -0.40100
O838        O  0.67576729  0.48757664  0.16176340    -0.39300
O839        O  0.82910080  0.39104916  0.16285835    -0.39300
O840        O  0.82840767  0.42647939  0.18382546    -0.37000
O841        O  0.77635971  0.27608500  0.18711585    -0.37900
O842        O  0.82256332  0.29815245  0.19693990    -0.34000
O843        O  0.68602264  0.41699862  0.21006236    -0.35400
O844        O  0.73302076  0.44233220  0.21621370    -0.39700
C845        C  0.76936004  0.15691113  0.18958213    -0.13400
C846        C  0.73773589  0.14203915  0.18723564     0.17000
C847        C  0.71059231  0.15252080  0.19730785     0.03300
C848        C  0.71552251  0.17707255  0.20974748    -0.11900
C849        C  0.74742293  0.19142012  0.21257860    -0.03000
C850        C  0.77448932  0.18132467  0.20214526     0.02500
C851        C  0.73464677  0.11292265  0.17566523     0.09300
N852        N  0.67796800  0.13799558  0.19527488     0.65700
H853        H  0.69429729  0.18437128  0.21744849     0.18600
N854        N  0.80740009  0.19518632  0.20417463     0.76200
H855        H  0.79040430  0.14875823  0.18196411     0.10100
C856        C  0.73011389  0.11696504  0.15819621     0.03800
C857        C  0.72939108  0.08857337  0.14762968    -0.04900
C858        C  0.73309294  0.05587049  0.15422773    -0.23300
C859        C  0.73723091  0.05206130  0.17182699     0.13100
C860        C  0.73802757  0.08047175  0.18231783    -0.12400
N861        N  0.72607170  0.14969905  0.15103979     0.64700
H862        H  0.72635791  0.09214729  0.13420763     0.12600
N863        N  0.73954873  0.01950166  0.17936083     0.61400
H864        H  0.74138358  0.07720550  0.19574637     0.08800
O865        O  0.81752024  0.21739560  0.19402365    -0.40100
O866        O  0.82853594  0.17992641  0.21323522    -0.39300
O867        O  0.66814858  0.11578593  0.20550609    -0.39300
O868        O  0.65676925  0.15237604  0.18589336    -0.37000
O869        O  0.76746804  0.00950839  0.18502451    -0.37900
O870        O  0.71298100  0.00451584  0.18373842    -0.34000
O871        O  0.75102001  0.16433707  0.14450870    -0.35400
O872        O  0.69688110  0.16106904  0.14850777    -0.39700
C873        C  0.78740611  0.36192941  0.30963874    -0.13400
C874        C  0.75720729  0.37878978  0.31323202     0.17000
C875        C  0.72854720  0.37173416  0.30346597     0.03300
C876        C  0.73023305  0.34792793  0.29049879    -0.11900
C877        C  0.76024612  0.33058146  0.28686869    -0.03000
C878        C  0.78921674  0.33805279  0.29655510     0.02500
C879        C  0.75600900  0.40433629  0.32689271     0.09300
N880        N  0.69715597  0.38781860  0.30692279     0.65700
H881        H  0.70766362  0.34290810  0.28330124     0.18600
N882        N  0.82044482  0.32131465  0.29357296     0.76200
H883        H  0.80968056  0.36743387  0.31697422     0.10100
C884        C  0.76096546  0.39539778  0.34387415     0.03800
C885        C  0.75940396  0.42006202  0.35645556    -0.04900
C886        C  0.75345746  0.45402626  0.35247723    -0.23300
C887        C  0.74897272  0.46307066  0.33539600     0.13100
C888        C  0.74997005  0.43818436  0.32282113    -0.12400
N889        N  0.76684182  0.36122417  0.34861265     0.64700
H890        H  0.76253112  0.41251185  0.36945351     0.12600
N891        N  0.74538602  0.49748895  0.33048097     0.61400
H892        H  0.74682886  0.44540467  0.30978187     0.08800
O893        O  0.82799643  0.29582912  0.30225895    -0.40100
O894        O  0.84310239  0.33612926  0.28528064    -0.39300
O895        O  0.68698896  0.41115302  0.29743058    -0.39300
O896        O  0.67702905  0.37455745  0.31725760    -0.37000
O897        O  0.77132732  0.51546057  0.32875667    -0.37900
O898        O  0.71780975  0.50751900  0.32442605    -0.34000
O899        O  0.79619248  0.35211273  0.35256966    -0.35400
O900        O  0.74221314  0.34275390  0.35247530    -0.39700
C901        C  0.78117060  0.08410619  0.32234692    -0.13400
C902        C  0.75853830  0.11105613  0.32423274     0.17000
C903        C  0.73570751  0.11055356  0.33790326     0.03300
C904        C  0.73588071  0.08352734  0.34925278    -0.11900
C905        C  0.75882713  0.05700822  0.34742528    -0.03000
C906        C  0.78166572  0.05741880  0.33388708     0.02500
C907        C  0.75773889  0.13820195  0.31125686     0.09300
N908        N  0.71277449  0.13769586  0.34071598     0.65700
H909        H  0.71839974  0.08348696  0.35968826     0.18600
N910        N  0.80469781  0.03028849  0.33136571     0.76200
H911        H  0.79800048  0.08333220  0.31167858     0.10100
C912        C  0.78715448  0.15534793  0.30619290     0.03800
C913        C  0.78562601  0.17946590  0.29335389    -0.04900
C914        C  0.75508678  0.18749507  0.28538857    -0.23300
C915        C  0.72559932  0.17037644  0.29049892     0.13100
C916        C  0.72727909  0.14582051  0.30314900    -0.12400
N917        N  0.81871508  0.14932941  0.31426555     0.64700
H918        H  0.80850851  0.19238254  0.28984114     0.12600
N919        N  0.69377443  0.17701677  0.28282606     0.61400
H920        H  0.70469272  0.13220936  0.30641534     0.08800
O921        O  0.83497628  0.03361769  0.33582207    -0.40100
O922        O  0.79641689  0.00591074  0.32202342    -0.39300
O923        O  0.68177588  0.13327506  0.33810739    -0.39300
O924        O  0.72233403  0.16304226  0.34904854    -0.37000
O925        O  0.68436203  0.15942061  0.27043125    -0.37900
O926        O  0.67258987  0.19505724  0.29049637    -0.34000
O927        O  0.84153771  0.13389515  0.30635377    -0.35400
O928        O  0.82630270  0.16600492  0.32727554    -0.39700
C929        C  0.11291247  0.34734448  0.85938561    -0.13400
C930        C  0.11472963  0.36794131  0.87376487     0.17000
C931        C  0.09159068  0.36278208  0.88694397     0.03300
C932        C  0.06734543  0.33733505  0.88563968    -0.11900
C933        C  0.06524641  0.31664708  0.87126146    -0.03000
C934        C  0.08839841  0.32195830  0.85799011     0.02500
C935        C  0.13980837  0.39570284  0.87449702     0.09300
N936        N  0.09282808  0.38274555  0.90193571     0.65700
H937        H  0.04999639  0.33385088  0.89598682     0.18600
N938        N  0.08797789  0.30141924  0.84319115     0.76200
H939        H  0.13035479  0.35124440  0.84912091     0.10100
C940        C  0.17465075  0.38925668  0.87478363     0.03800
C941        C  0.19754714  0.41609526  0.87532131    -0.04900
C942        C  0.18641332  0.44968642  0.87544992    -0.23300
C943        C  0.15147496  0.45611834  0.87495414     0.13100
C944        C  0.12858622  0.42920918  0.87455044    -0.12400
N945        N  0.18718566  0.35555732  0.87492743     0.64700
H946        H  0.22416388  0.41065430  0.87557349     0.12600
N947        N  0.13871973  0.48974106  0.87537733     0.61400
H948        H  0.10194729  0.43448540  0.87421580     0.08800
O949        O  0.10798659  0.27686718  0.84206185    -0.40100
O950        O  0.07323921  0.31191245  0.83012901    -0.39300
O951        O  0.07116917  0.40551429  0.90420839    -0.39300
O952        O  0.11053525  0.37303116  0.91419909    -0.37000
O953        O  0.12801685  0.50296414  0.86195529    -0.37900
O954        O  0.13104055  0.50280226  0.88936575    -0.34000
O955        O  0.19911621  0.34304089  0.86157881    -0.35400
O956        O  0.19269054  0.34124190  0.88884308    -0.39700
C957        C  0.80666106  0.37461332  0.87304349    -0.13400
C958        C  0.84008235  0.38548802  0.87160735     0.17000
C959        C  0.84682146  0.41993926  0.86928621     0.03300
C960        C  0.82028304  0.44300196  0.86845774    -0.11900
C961        C  0.78672278  0.43232441  0.86985925    -0.03000
C962        C  0.77997458  0.39766189  0.87208940     0.02500
C963        C  0.86756468  0.36037684  0.87148038     0.09300
N964        N  0.88058603  0.43193163  0.86800274     0.65700
H965        H  0.82595941  0.46945225  0.86695703     0.18600
N966        N  0.74625545  0.38521469  0.87239770     0.76200
H967        H  0.80128447  0.34808724  0.87446348     0.10100
C968        C  0.87891030  0.34516476  0.88641787     0.03800
C969        C  0.90511622  0.32165125  0.88583876    -0.04900
C970        C  0.92002242  0.31221582  0.87043830    -0.23300
C971        C  0.90772373  0.32687363  0.85537542     0.13100
C972        C  0.88206702  0.35106279  0.85607386    -0.12400
N973        N  0.86406694  0.35337425  0.90229348     0.64700
H974        H  0.91357933  0.31057956  0.89753702     0.12600
N975        N  0.92035344  0.31712214  0.83923010     0.61400
H976        H  0.87301717  0.36223927  0.84450526     0.08800
O977        O  0.73397916  0.37475487  0.88608697    -0.40100
O978        O  0.73202542  0.37758721  0.85869012    -0.39300
O979        O  0.89213245  0.44021534  0.85379056    -0.39300
O980        O  0.89623851  0.44033634  0.88119519    -0.37000
O981        O  0.90570208  0.29400543  0.83112591    -0.37900
O982        O  0.94107970  0.33590409  0.83172602    -0.34000
O983        O  0.84203564  0.33412955  0.90845726    -0.35400
O984        O  0.87759458  0.37546312  0.91151975    -0.39700
C985        C  0.31521333  0.50248338  0.06966770    -0.13400
C986        C  0.34857967  0.50102088  0.07539372     0.17000
C987        C  0.35483391  0.50065905  0.09288688     0.03300
C988        C  0.32784100  0.50143925  0.10427104    -0.11900
C989        C  0.29438930  0.50303757  0.09857558    -0.03000
C990        C  0.28820766  0.50346267  0.08104776     0.02500
C991        C  0.37623642  0.50166474  0.06280151     0.09300
N992        N  0.38839620  0.50117271  0.09932194     0.65700
H993        H  0.33307590  0.50160256  0.11765205     0.18600
N994        N  0.25468143  0.50359811  0.07457208     0.76200
H995        H  0.31012762  0.50276517  0.05627219     0.10100
C996        C  0.39546468  0.47285715  0.05894915     0.03800
C997        C  0.41970413  0.47416884  0.04610003    -0.04900
C998        C  0.42529795  0.50383045  0.03680683    -0.23300
C999        C  0.40609369  0.53274469  0.04086675     0.13100
C1000       C  0.38187672  0.53133551  0.05370505    -0.12400
N1001       N  0.38957050  0.44161051  0.06734876     0.64700
H1002       H  0.43385349  0.45160734  0.04323897     0.12600
N1003       N  0.40968299  0.56340695  0.03166847     0.61400
H1004       H  0.36698595  0.55349581  0.05644189     0.08800
O1005       O  0.24016753  0.47594244  0.07164629    -0.40100
O1006       O  0.24291045  0.53029284  0.06830897    -0.39300
O1007       O  0.40263611  0.52914322  0.10180380    -0.39300
O1008       O  0.40006376  0.47518066  0.10632212    -0.37000
O1009       O  0.38777625  0.57114705  0.02084973    -0.37900
O1010       O  0.42935226  0.58585305  0.03712122    -0.34000
O1011       O  0.36812166  0.42143290  0.06137409    -0.35400
O1012       O  0.41097191  0.43089980  0.07778666    -0.39700
C1013       C  0.60618959  0.52813318  0.05285738    -0.13400
C1014       C  0.62508100  0.49851272  0.05441610     0.17000
C1015       C  0.61706543  0.47055641  0.04425945     0.03300
C1016       C  0.58998778  0.47242500  0.03298779    -0.11900
C1017       C  0.57047952  0.50186361  0.03162343    -0.03000
C1018       C  0.57910091  0.53007565  0.04161439     0.02500
C1019       C  0.65023012  0.49647328  0.06811966     0.09300
N1020       N  0.63516094  0.43963480  0.04575699     0.65700
H1021       H  0.58401684  0.45055351  0.02541151     0.18600
N1022       N  0.55954127  0.56022870  0.04126122     0.76200
H1023       H  0.61188011  0.54954409  0.06082265     0.10100
C1024       C  0.68501942  0.49901568  0.06511024     0.03800
C1025       C  0.70743082  0.50054049  0.07874695    -0.04900
C1026       C  0.69572539  0.49993082  0.09548574    -0.23300
C1027       C  0.66077826  0.49676039  0.09838861     0.13100
C1028       C  0.63853379  0.49487526  0.08474210    -0.12400
N1029       N  0.69790452  0.50159018  0.04835591     0.64700
H1030       H  0.73405214  0.50261234  0.07623349     0.12600
N1031       N  0.64709094  0.49742178  0.11503428     0.61400
H1032       H  0.61181291  0.49335478  0.08713373     0.08800
O1033       O  0.57030577  0.58549883  0.03329842    -0.40100
O1034       O  0.53556590  0.56376743  0.05152957    -0.39300
O1035       O  0.62430394  0.41714040  0.05555965    -0.39300
O1036       O  0.65640578  0.43183829  0.03460639    -0.37000
O1037       O  0.64203081  0.52545826  0.12209659    -0.37900
O1038       O  0.63211204  0.47167387  0.12052269    -0.34000
O1039       O  0.70228037  0.53035953  0.04200467    -0.35400
O1040       O  0.71232878  0.47649648  0.04179766    -0.39700
C1041       C  0.36651330  0.52291438  0.95229693    -0.13400
C1042       C  0.36523717  0.49627368  0.94069803     0.17000
C1043       C  0.39032952  0.47119749  0.94125720     0.03300
C1044       C  0.41598898  0.47310173  0.95333516    -0.11900
C1045       C  0.41742044  0.49992151  0.96488162    -0.03000
C1046       C  0.39222302  0.52490804  0.96432714     0.02500
C1047       C  0.33874877  0.49629502  0.92750831     0.09300
N1048       N  0.38986426  0.44340449  0.92978944     0.65700
H1049       H  0.43501684  0.45365710  0.95358451     0.18600
N1050       N  0.39122095  0.55149084  0.97644511     0.76200
H1051       H  0.34770745  0.54253383  0.95188598     0.10100
C1052       C  0.30424194  0.49650061  0.93163868     0.03800
C1053       C  0.28005343  0.49776107  0.91882274    -0.04900
C1054       C  0.28954643  0.49955813  0.90180855    -0.23300
C1055       C  0.32412747  0.50005010  0.89769370     0.13100
C1056       C  0.34829367  0.49823581  0.91051663    -0.12400
N1057       N  0.29329973  0.49543057  0.94878509     0.64700
H1058       H  0.25372157  0.49777923  0.92219021     0.12600
N1059       N  0.33524559  0.50179786  0.88058448     0.61400
H1060       H  0.37462830  0.49893502  0.90720115     0.08800
O1061       O  0.37016490  0.54992168  0.98830402    -0.40100
O1062       O  0.40485260  0.57934441  0.97303063    -0.39300
O1063       O  0.41062725  0.44252812  0.91777073    -0.39300
O1064       O  0.37387078  0.41708007  0.93363993    -0.37000
O1065       O  0.34531209  0.52960866  0.87479784    -0.37900
O1066       O  0.34301586  0.47498116  0.87298017    -0.34000
O1067       O  0.28263037  0.52199685  0.95570169    -0.35400
O1068       O  0.28722397  0.46735325  0.95554224    -0.39700
C1069       C  0.60327702  0.52234958  0.94204044    -0.13400
C1070       C  0.60944805  0.49094551  0.93457665     0.17000
C1071       C  0.59137223  0.46264332  0.94020754     0.03300
C1072       C  0.56747961  0.46616649  0.95309302    -0.11900
C1073       C  0.56112311  0.49762733  0.96069242    -0.03000
C1074       C  0.57942703  0.52596489  0.95495694     0.02500
C1075       C  0.63572039  0.48830617  0.92136386     0.09300
N1076       N  0.59785626  0.42991441  0.93343476     0.65700
H1077       H  0.55409774  0.44399106  0.95724954     0.18600
N1078       N  0.57490397  0.55846914  0.96234098     0.76200
H1079       H  0.61726175  0.54416948  0.93788515     0.10100
C1080       C  0.62737453  0.48534494  0.90415083     0.03800
C1081       C  0.65285423  0.48494050  0.89196100    -0.04900
C1082       C  0.68678830  0.48758539  0.89658762    -0.23300
C1083       C  0.69519848  0.49061989  0.91381454     0.13100
C1084       C  0.66967452  0.49091717  0.92602983    -0.12400
N1085       N  0.59312243  0.48424038  0.89876266     0.64700
H1086       H  0.64610202  0.48274347  0.87878760     0.12600
N1087       N  0.72928786  0.49535287  0.91901875     0.61400
H1088       H  0.67631007  0.49382108  0.93918276     0.08800
O1089       O  0.55634870  0.57970531  0.95505314    -0.40100
O1090       O  0.59480302  0.56820563  0.97374795    -0.39300
O1091       O  0.61976501  0.41154133  0.94032873    -0.39300
O1092       O  0.57679523  0.41671794  0.92352596    -0.37000
O1093       O  0.74517443  0.47115197  0.92553198    -0.37900
O1094       O  0.74070707  0.52486101  0.92049062    -0.34000
O1095       O  0.57820212  0.51146476  0.89544635    -0.35400
O1096       O  0.58116927  0.45693056  0.89324660    -0.39700
C1097       C  0.65920752  0.07390279  0.61269545    -0.13400
C1098       C  0.65721117  0.09751917  0.62586696     0.17000
C1099       C  0.68041049  0.09517922  0.63934354     0.03300
C1100       C  0.70484303  0.06975267  0.63937984    -0.11900
C1101       C  0.70731971  0.04685011  0.62596829    -0.03000
C1102       C  0.68424285  0.04908852  0.61252023     0.02500
C1103       C  0.62993776  0.12333418  0.62572998     0.09300
N1104       N  0.68041444  0.11921199  0.65278177     0.65700
H1105       H  0.72261941  0.06855071  0.64965726     0.18600
N1106       N  0.68531906  0.02585042  0.59876541     0.76200
H1107       H  0.64098060  0.07427428  0.60264213     0.10100
C1108       C  0.62324389  0.14340199  0.61141540     0.03800
C1109       C  0.59738160  0.16732496  0.61185812    -0.04900
C1110       C  0.57777813  0.17209019  0.62639118    -0.23300
C1111       C  0.58381583  0.15132663  0.64054079     0.13100
C1112       C  0.60943820  0.12714578  0.64001971    -0.12400
N1113       N  0.64294866  0.14051871  0.59641783     0.64700
H1114       H  0.59317350  0.18273390  0.60084256     0.12600
N1115       N  0.56369959  0.15370856  0.65542085     0.61400
H1116       H  0.61297833  0.11096460  0.65078881     0.08800
O1117       O  0.69426370  0.03611584  0.58441173    -0.40100
O1118       O  0.67017655  0.99804611  0.60000759    -0.39300
O1119       O  0.67153778  0.11021389  0.66736667    -0.39300
O1120       O  0.69559679  0.14684528  0.65088955    -0.37000
O1121       O  0.53804621  0.13523564  0.65688777    -0.37900
O1122       O  0.57531737  0.16849678  0.66825628    -0.34000
O1123       O  0.62996193  0.12778078  0.58335852    -0.35400
O1124       O  0.66976143  0.15729664  0.59512150    -0.39700
C1125       C  0.39199106  0.13886968  0.60919829    -0.13400
C1126       C  0.38613086  0.12009563  0.62386925     0.17000
C1127       C  0.40574246  0.12647999  0.63829806     0.03300
C1128       C  0.43003121  0.15195047  0.63804355    -0.11900
C1129       C  0.43578740  0.17119806  0.62346970    -0.03000
C1130       C  0.41672256  0.16406209  0.60881383     0.02500
C1131       C  0.36034887  0.09311172  0.62367563     0.09300
N1132       N  0.40090149  0.10769023  0.65344096     0.65700
H1133       H  0.44453292  0.15654553  0.64935286     0.18600
N1134       N  0.42177054  0.18221908  0.59348817     0.76200
H1135       H  0.37755889  0.13367294  0.59793438     0.10100
C1136       C  0.32615582  0.10039832  0.62083573     0.03800
C1137       C  0.30263790  0.07421716  0.62001451    -0.04900
C1138       C  0.31257032  0.04043489  0.62178569    -0.23300
C1139       C  0.34693786  0.03318372  0.62456391     0.13100
C1140       C  0.37038250  0.05948612  0.62558993    -0.12400
N1141       N  0.31482544  0.13434917  0.61907579     0.64700
H1142       H  0.27641997  0.08040031  0.61818320     0.12600
N1143       N  0.35879462  0.99925895  0.62537530     0.61400
H1144       H  0.39667323  0.05357628  0.62736180     0.08800
O1145       O  0.40232876  0.20623856  0.58986441    -0.40100
O1146       O  0.44010926  0.16965744  0.58212280    -0.39300
O1147       O  0.42165606  0.08494500  0.65730039    -0.39300
O1148       O  0.38076291  0.11853672  0.66446929    -0.37000
O1149       O  0.36518322  0.98367556  0.61187615    -0.37900
O1150       O  0.36959438  0.98778373  0.63917765    -0.34000
O1151       O  0.30765278  0.14551193  0.60463357    -0.35400
O1152       O  0.30577789  0.15060575  0.63197916    -0.39700
C1153       C  0.88458733  0.02715013  0.44834590    -0.13400
C1154       C  0.87981469  0.99759220  0.43896599     0.17000
C1155       C  0.90068944  0.96965115  0.44200538     0.03300
C1156       C  0.92572660  0.97158020  0.45436343    -0.11900
C1157       C  0.93091701  0.00126145  0.46373503    -0.03000
C1158       C  0.91000347  0.02933987  0.46055509     0.02500
C1159       C  0.85453188  0.99739283  0.42526929     0.09300
N1160       N  0.89668013  0.93904693  0.43271568     0.65700
H1161       H  0.94140999  0.94974622  0.45646947     0.18600
N1162       N  0.91408395  0.06027321  0.46953314     0.76200
H1163       H  0.86897477  0.04889623  0.44590520     0.10100
C1164       C  0.81985671  0.99950693  0.42870741     0.03800
C1165       C  0.79678981  0.00128396  0.41538804    -0.04900
C1166       C  0.80774168  0.00130805  0.39853940    -0.23300
C1167       C  0.84252765  0.99936008  0.39514544     0.13100
C1168       C  0.86554964  0.99728617  0.40848258    -0.12400
N1169       N  0.80768976  0.99942191  0.44565593     0.64700
H1170       H  0.77025432  0.00288544  0.41821267     0.12600
N1171       N  0.85486616  0.99871189  0.37823813     0.61400
H1172       H  0.89213317  0.99599171  0.40574065     0.08800
O1173       O  0.89462820  0.06698882  0.48164118    -0.40100
O1174       O  0.93140827  0.08353134  0.46307150    -0.39300
O1175       O  0.91651437  0.93259896  0.42072443    -0.39300
O1176       O  0.87895250  0.91569438  0.43880475    -0.37000
O1177       O  0.85809241  0.97085900  0.37073960    -0.37900
O1178       O  0.86878220  0.02459971  0.37223118    -0.34000
O1179       O  0.80009570  0.02690660  0.45268802    -0.35400
O1180       O  0.79839422  0.97206472  0.45223958    -0.39700
C1181       C  0.82977270  0.99318127  0.57121224    -0.13400
C1182       C  0.86349055  0.99588654  0.57616211     0.17000
C1183       C  0.87137458  0.00028884  0.59333489     0.03300
C1184       C  0.84556120  0.00114471  0.60529448    -0.11900
C1185       C  0.81177448  0.99803902  0.60037612    -0.03000
C1186       C  0.80392678  0.99423494  0.58314418     0.02500
C1187       C  0.88977983  0.99599690  0.56303596     0.09300
N1188       N  0.90546071  0.00334933  0.59883780     0.65700
H1189       H  0.85189061  0.00426133  0.61846557     0.18600
N1190       N  0.76997374  0.99058101  0.57756584     0.76200
H1191       H  0.82350492  0.99039986  0.55802098     0.10100
C1192       C  0.89515710  0.96784543  0.55257727     0.03800
C1193       C  0.91853698  0.96969165  0.53945269    -0.04900
C1194       C  0.93648914  0.99952614  0.53630543    -0.23300
C1195       C  0.93081234  0.02781692  0.54681038     0.13100
C1196       C  0.90779128  0.02568827  0.56009804    -0.12400
N1197       N  0.87711611  0.93716111  0.55516402     0.64700
H1198       H  0.92234758  0.94772902  0.53160850     0.12600
N1199       N  0.94795805  0.05898538  0.54419021     0.61400
H1200       H  0.90328812  0.04761217  0.56787915     0.08800
O1201       O  0.75682872  0.96166980  0.57725313    -0.40100
O1202       O  0.75645716  0.01414905  0.56935750    -0.39300
O1203       O  0.91690318  0.03196509  0.60272936    -0.39300
O1204       O  0.92145212  0.97730259  0.60312466    -0.37000
O1205       O  0.93438037  0.08137633  0.53520734    -0.37900
O1206       O  0.97234598  0.06676861  0.55360395    -0.34000
O1207       O  0.85274750  0.92991828  0.54562841    -0.35400
O1208       O  0.88960493  0.91464737  0.56445440    -0.39700
C1209       C  0.10427786  0.97207452  0.55865194    -0.13400
C1210       C  0.12710387  0.99896839  0.55953446     0.17000
C1211       C  0.12490894  0.02505508  0.54755220     0.03300
C1212       C  0.09966834  0.02437801  0.53528413    -0.11900
C1213       C  0.07680079  0.99754950  0.53434248    -0.03000
C1214       C  0.07941653  0.97098460  0.54612914     0.02500
C1215       C  0.15442215  0.99817651  0.57226708     0.09300
N1216       N  0.14818698  0.05245494  0.54762203     0.65700
H1217       H  0.09833994  0.04473640  0.52627308     0.18600
N1218       N  0.05692746  0.94290655  0.54572683     0.76200
H1219       H  0.10621274  0.95148491  0.56748931     0.10100
C1220       C  0.14760870  0.99620432  0.58968883     0.03800
C1221       C  0.17420057  0.99385867  0.60120971    -0.04900
C1222       C  0.20777686  0.99330914  0.59569300    -0.23300
C1223       C  0.21450612  0.99518808  0.57825245     0.13100
C1224       C  0.18791882  0.99750236  0.56675440    -0.12400
N1225       N  0.11388366  0.99707308  0.59590653     0.64700
H1226       H  0.16859032  0.99285109  0.61453547     0.12600
N1227       N  0.24805960  0.99290726  0.57192132     0.61400
H1228       H  0.19345296  0.99775749  0.55342302     0.08800
O1229       O  0.03144476  0.94283376  0.55520087    -0.40100
O1230       O  0.06632174  0.91574988  0.53892104    -0.39300
O1231       O  0.17185126  0.05275046  0.53702699    -0.39300
O1232       O  0.14057043  0.07930261  0.55523254    -0.37000
O1233       O  0.26064090  0.96428107  0.56912089    -0.37900
O1234       O  0.26185012  0.01867942  0.56571828    -0.34000
O1235       O  0.10060890  0.97040802  0.60141064    -0.35400
O1236       O  0.10042206  0.02507354  0.59922438    -0.39700
C1237       C  0.17657112  0.99065341  0.42423222    -0.13400
C1238       C  0.14318241  0.99740247  0.41976930     0.17000
C1239       C  0.13525094  0.00404069  0.40280444     0.03300
C1240       C  0.16059362  0.00311736  0.39052221    -0.11900
C1241       C  0.19417117  0.99629298  0.39490804    -0.03000
C1242       C  0.20209909  0.99043873  0.41205870     0.02500
C1243       C  0.11744383  0.99871869  0.43322806     0.09300
N1244       N  0.10183130  0.01292723  0.39794646     0.65700
H1245       H  0.15400015  0.00787097  0.37751834     0.18600
N1246       N  0.23612824  0.98644167  0.41752275     0.76200
H1247       H  0.18295150  0.98635815  0.43730902     0.10100
C1248       C  0.09765742  0.97043702  0.43715399     0.03800
C1249       C  0.07556316  0.97153735  0.45089532    -0.04900
C1250       C  0.07276923  0.00055923  0.46098272    -0.23300
C1251       C  0.09282626  0.02891138  0.45701425     0.13100
C1252       C  0.11482634  0.02774607  0.44320410    -0.12400
N1253       N  0.10045980  0.94005112  0.42759995     0.64700
H1254       H  0.06050211  0.94953611  0.45363939     0.12600
N1255       N  0.09256595  0.05842090  0.46734738     0.61400
H1256       H  0.13053720  0.04931262  0.44048667     0.08800
O1257       O  0.24581156  0.95821702  0.42295266    -0.40100
O1258       O  0.25348699  0.01229625  0.42068873    -0.39300
O1259       O  0.09386967  0.04361960  0.39702706    -0.39300
O1260       O  0.08320318  0.99112442  0.39109716    -0.37000
O1261       O  0.11278542  0.06060432  0.47956739    -0.37900
O1262       O  0.07749606  0.08446992  0.46229374    -0.34000
O1263       O  0.11845186  0.91634667  0.43312117    -0.35400
O1264       O  0.07978165  0.93428599  0.41587903    -0.39700
C1265       C  0.39116121  0.35041922  0.61303049    -0.13400
C1266       C  0.38411235  0.36600623  0.62846656     0.17000
C1267       C  0.40222467  0.35660160  0.64293152     0.03300
C1268       C  0.42694963  0.33167124  0.64178523    -0.11900
C1269       C  0.43418282  0.31574226  0.62634317    -0.03000
C1270       C  0.41597506  0.32550421  0.61181377     0.02500
C1271       C  0.35699180  0.39128000  0.62923274     0.09300
N1272       N  0.39539995  0.37167105  0.65893905     0.65700
H1273       H  0.44050835  0.32480367  0.65309083     0.18600
N1274       N  0.42154584  0.30987216  0.59582680     0.76200
H1275       H  0.37711569  0.35746632  0.60189546     0.10100
C1276       C  0.36405373  0.42589722  0.62829508     0.03800
C1277       C  0.33767909  0.44914654  0.62840430    -0.04900
C1278       C  0.30401363  0.43848497  0.62935977    -0.23300
C1279       C  0.29700029  0.40365568  0.63016748     0.13100
C1280       C  0.32351117  0.38039823  0.63009926    -0.12400
N1281       N  0.39781408  0.43776367  0.62666830     0.64700
H1282       H  0.34352582  0.47567066  0.62744988     0.12600
N1283       N  0.26329553  0.39147800  0.63148631     0.61400
H1284       H  0.31798937  0.35376512  0.63074450     0.08800
O1285       O  0.43926335  0.32477629  0.58495933    -0.40100
O1286       O  0.40286120  0.28582044  0.59129157    -0.39300
O1287       O  0.37575318  0.35702099  0.66903184    -0.39300
O1288       O  0.41461853  0.39449366  0.66440821    -0.37000
O1289       O  0.25001231  0.37691286  0.61899816    -0.37900
O1290       O  0.25016884  0.38823499  0.64587014    -0.34000
O1291       O  0.40957929  0.44334803  0.61217093    -0.35400
O1292       O  0.41277034  0.44953007  0.63941140    -0.39700
C1293       C  0.68542947  0.38397364  0.62527366    -0.13400
C1294       C  0.65268590  0.39537755  0.62846059     0.17000
C1295       C  0.64738753  0.42965517  0.63212401     0.03300
C1296       C  0.67468363  0.45201410  0.63238905    -0.11900
C1297       C  0.70758264  0.44073701  0.62918441    -0.03000
C1298       C  0.71284909  0.40619332  0.62574173     0.02500
C1299       C  0.62476344  0.37064372  0.62856211     0.09300
N1300       N  0.61444434  0.44213205  0.63562046     0.65700
H1301       H  0.67008948  0.47837615  0.63494683     0.18600
N1302       N  0.74599770  0.39289440  0.62370393     0.76200
H1303       H  0.68978258  0.35754033  0.62278787     0.10100
C1304       C  0.60871341  0.36083948  0.61354375     0.03800
C1305       C  0.58473965  0.33499745  0.61374880    -0.04900
C1306       C  0.57626901  0.31823838  0.62878762    -0.23300
C1307       C  0.59215936  0.32858884  0.64394063     0.13100
C1308       C  0.61609790  0.35462016  0.64367452    -0.12400
N1309       N  0.61687762  0.37658291  0.59789978     0.64700
H1310       H  0.57288834  0.32794426  0.60198820     0.12600
N1311       N  0.58539327  0.31224507  0.65960579     0.61400
H1312       H  0.62863944  0.36175722  0.65524716     0.08800
O1313       O  0.75548353  0.38297211  0.60935309    -0.40100
O1314       O  0.76239135  0.38408416  0.63658470    -0.39300
O1315       O  0.60558068  0.44671658  0.65072155    -0.39300
O1316       O  0.59743843  0.45517191  0.62389754    -0.37000
O1317       O  0.60371571  0.28798748  0.66418200    -0.37900
O1318       O  0.56660896  0.32646789  0.67027406    -0.34000
O1319       O  0.63690794  0.36216061  0.58789261    -0.35400
O1320       O  0.59898936  0.40061286  0.59265187    -0.39700
C1321       C  0.11225870  0.51877123  0.44368963    -0.13400
C1322       C  0.13345306  0.49059907  0.44320125     0.17000
C1323       C  0.12817170  0.46414883  0.45469575     0.03300
C1324       C  0.10180063  0.46612392  0.46633626    -0.11900
C1325       C  0.08075393  0.49452146  0.46704460    -0.03000
C1326       C  0.08627001  0.52114234  0.45556190     0.02500
C1327       C  0.16182159  0.49011020  0.43111274     0.09300
N1328       N  0.14920603  0.43498550  0.45462633     0.65700
H1329       H  0.09811606  0.44550717  0.47503370     0.18600
N1330       N  0.06557307  0.55054364  0.45553764     0.76200
H1331       H  0.11639727  0.53938988  0.43505141     0.10100
C1332       C  0.15620403  0.49048801  0.41358975     0.03800
C1333       C  0.18349946  0.49121963  0.40250985    -0.04900
C1334       C  0.21672705  0.49184012  0.40853785    -0.23300
C1335       C  0.22235424  0.49227617  0.42612001     0.13100
C1336       C  0.19493242  0.49119111  0.43722647    -0.12400
N1337       N  0.12290860  0.48960344  0.40682405     0.64700
H1338       H  0.17868265  0.49139457  0.38910088     0.12600
N1339       N  0.25561078  0.49316044  0.43293562     0.61400
H1340       H  0.19946981  0.49158376  0.45065151     0.08800
O1341       O  0.04634400  0.55578617  0.44316921    -0.40100
O1342       O  0.07307881  0.57478713  0.46512765    -0.39300
O1343       O  0.17185387  0.43204728  0.46567236    -0.39300
O1344       O  0.14055730  0.40954263  0.44611870    -0.37000
O1345       O  0.26710565  0.52060857  0.43854006    -0.37900
O1346       O  0.26975024  0.46593860  0.43701919    -0.34000
O1347       O  0.10989284  0.51636129  0.40128620    -0.35400
O1348       O  0.10997282  0.46162651  0.40295322    -0.39700
C1349       C  0.10385303  0.51966597  0.56383924    -0.13400
C1350       C  0.12581083  0.49211459  0.56497979     0.17000
C1351       C  0.12234548  0.46519431  0.55352672     0.03300
C1352       C  0.09797668  0.46667998  0.54085603    -0.11900
C1353       C  0.07656124  0.49462499  0.53936690    -0.03000
C1354       C  0.07920676  0.52105907  0.55124558     0.02500
C1355       C  0.15170741  0.49160254  0.57840049     0.09300
N1356       N  0.14395896  0.43650879  0.55431627     0.65700
H1357       H  0.09621735  0.44604785  0.53198991     0.18600
N1358       N  0.05605436  0.54858572  0.55128468     0.76200
H1359       H  0.10543420  0.53985062  0.57295906     0.10100
C1360       C  0.17569233  0.51759325  0.57980137     0.03800
C1361       C  0.19959499  0.51672217  0.59270478    -0.04900
C1362       C  0.20021137  0.49015330  0.60431206    -0.23300
C1363       C  0.17587937  0.46442398  0.60313638     0.13100
C1364       C  0.15184614  0.46534192  0.59022618    -0.12400
N1365       N  0.17681239  0.54447745  0.56786933     0.64700
H1366       H  0.21822676  0.53649248  0.59344555     0.12600
N1367       N  0.17426578  0.43811921  0.61537597     0.61400
H1368       H  0.13290853  0.44588450  0.58961750     0.08800
O1369       O  0.06581613  0.57734719  0.54665741    -0.40100
O1370       O  0.02853603  0.54574676  0.55907463    -0.39300
O1371       O  0.13264313  0.40897743  0.55984958    -0.39300
O1372       O  0.17148594  0.43682469  0.54641762    -0.37000
O1373       O  0.15794283  0.44284632  0.62881237    -0.37900
O1374       O  0.18234266  0.40854254  0.61120561    -0.34000
O1375       O  0.16751333  0.57358225  0.57224306    -0.35400
O1376       O  0.19292506  0.54065933  0.55430196    -0.39700
C1377       C  0.91291819  0.47562703  0.56454830    -0.13400
C1378       C  0.88220566  0.49156521  0.56093902     0.17000
C1379       C  0.87875619  0.50918032  0.54556623     0.03300
C1380       C  0.90565660  0.51050406  0.53422825    -0.11900
C1381       C  0.93585828  0.49382858  0.53769381    -0.03000
C1382       C  0.93949286  0.47621929  0.55298696     0.02500
C1383       C  0.85512131  0.49139343  0.57386434     0.09300
N1384       N  0.84777757  0.52490775  0.54097149     0.65700
H1385       H  0.90255566  0.52371013  0.52242457     0.18600
N1386       N  0.97050950  0.46025283  0.55734450     0.76200
H1387       H  0.91659475  0.46330487  0.57652012     0.10100
C1388       C  0.84417756  0.46128734  0.58153441     0.03800
C1389       C  0.82053477  0.46240478  0.59456690    -0.04900
C1390       C  0.80674406  0.49306970  0.60007333    -0.23300
C1391       C  0.81717173  0.52320376  0.59212342     0.13100
C1392       C  0.84151806  0.52210240  0.57937578    -0.12400
N1393       N  0.85644199  0.42922820  0.57610982     0.64700
H1394       H  0.81319311  0.43907722  0.60051871     0.12600
N1395       N  0.80262324  0.55503993  0.59634236     0.61400
H1396       H  0.85000999  0.54544287  0.57388101     0.08800
O1397       O  0.97263464  0.42858090  0.55670279    -0.40100
O1398       O  0.99246233  0.47670256  0.56537545    -0.39300
O1399       O  0.84613936  0.55662005  0.54046018    -0.39300
O1400       O  0.82547036  0.50769946  0.53361894    -0.37000
O1401       O  0.77643406  0.56446236  0.58870690    -0.37900
O1402       O  0.82022477  0.57666428  0.60399310    -0.34000
O1403       O  0.87612793  0.41294172  0.58554167    -0.35400
O1404       O  0.84167298  0.41414576  0.56421172    -0.39700
C1405       C  0.90826889  0.51559916  0.44160931    -0.13400
C1406       C  0.87925049  0.49657712  0.44487088     0.17000
C1407       C  0.87848161  0.47579403  0.45931594     0.03300
C1408       C  0.90629665  0.47465758  0.47016570    -0.11900
C1409       C  0.93477287  0.49456900  0.46712950    -0.03000
C1410       C  0.93564510  0.51512987  0.45269253     0.02500
C1411       C  0.85122210  0.49718859  0.43243057     0.09300
N1412       N  0.84918874  0.45675508  0.46355226     0.65700
H1413       H  0.90515789  0.45906613  0.48129834     0.18600
N1414       N  0.96498545  0.53403304  0.44849889     0.76200
H1415       H  0.90999587  0.53041412  0.43025685     0.10100
C1416       C  0.83704556  0.52769456  0.42674102     0.03800
C1417       C  0.81243826  0.52737201  0.41411680    -0.04900
C1418       C  0.80084672  0.49701140  0.40703381    -0.23300
C1419       C  0.81511084  0.46639087  0.41281132     0.13100
C1420       C  0.84019706  0.46686735  0.42522742    -0.12400
N1421       N  0.84693240  0.55929860  0.43383227     0.64700
H1422       H  0.80258868  0.55117983  0.40976432     0.12600
N1423       N  0.80409488  0.43442397  0.40659498     0.61400
H1424       H  0.85137472  0.44334708  0.42911260     0.08800
O1425       O  0.98494386  0.52246839  0.43757325    -0.40100
O1426       O  0.96649283  0.56480263  0.45241634    -0.39300
O1427       O  0.84963961  0.42514244  0.46194627    -0.39300
O1428       O  0.82659122  0.47026623  0.47244068    -0.37000
O1429       O  0.82335942  0.41762725  0.39713657    -0.37900
O1430       O  0.78020340  0.41959851  0.41395413    -0.34000
O1431       O  0.86493065  0.57908970  0.42527738    -0.35400
O1432       O  0.83160502  0.57039838  0.44660723    -0.39700
C1433       C  0.23021230  0.63405722  0.69617112    -0.13400
C1434       C  0.26107509  0.62529740  0.68887871     0.17000
C1435       C  0.29025930  0.64305366  0.69349968     0.03300
C1436       C  0.28843539  0.66834676  0.70574029    -0.11900
C1437       C  0.25768593  0.67685639  0.71340036    -0.03000
C1438       C  0.22815760  0.65975722  0.70822452     0.02500
C1439       C  0.26203243  0.59776400  0.67634486     0.09300
N1440       N  0.32210863  0.63519856  0.68616376     0.65700
H1441       H  0.31132790  0.68123377  0.70928018     0.18600
N1442       N  0.19586057  0.66803519  0.71494874     0.76200
H1443       H  0.20755410  0.62102609  0.69238382     0.10100
C1444       C  0.25358410  0.56458070  0.68093791     0.03800
C1445       C  0.25267750  0.53929803  0.66870706    -0.04900
C1446       C  0.25967015  0.54660095  0.65181882    -0.23300
C1447       C  0.26833739  0.57971134  0.64715013     0.13100
C1448       C  0.26960981  0.60504821  0.65946004    -0.12400
N1449       N  0.24598545  0.55613626  0.69801133     0.64700
H1450       H  0.24609188  0.51393623  0.67235866     0.12600
N1451       N  0.27621918  0.58787930  0.63006487     0.61400
H1452       H  0.27584424  0.63047770  0.65580794     0.08800
O1453       O  0.18282172  0.64916736  0.72593274    -0.40100
O1454       O  0.17754988  0.68886499  0.70721745    -0.39300
O1455       O  0.33380343  0.65397687  0.67476904    -0.39300
O1456       O  0.34138034  0.61474343  0.69354153    -0.37000
O1457       O  0.25379165  0.60042278  0.62073823    -0.37900
O1458       O  0.30660497  0.58951152  0.62556079    -0.34000
O1459       O  0.21575506  0.55177963  0.70231644    -0.35400
O1460       O  0.26922195  0.54595202  0.70755731    -0.39700
C1461       C  0.28198670  0.63724183  0.80617522    -0.13400
C1462       C  0.25024542  0.62406722  0.81011663     0.17000
C1463       C  0.22175702  0.63597990  0.80153410     0.03300
C1464       C  0.22525066  0.66078062  0.78920122    -0.11900
C1465       C  0.25690963  0.67448394  0.78519918    -0.03000
C1466       C  0.28559767  0.66227484  0.79382180     0.02500
C1467       C  0.24687789  0.59930090  0.82388001     0.09300
N1468       N  0.18888617  0.62400301  0.80564285     0.65700
H1469       H  0.20280367  0.66957518  0.78287932     0.18600
N1470       N  0.31837032  0.67552382  0.79060270     0.76200
H1471       H  0.30396299  0.62837336  0.81288453     0.10100
C1472       C  0.24403294  0.56460262  0.82055883     0.03800
C1473       C  0.24017328  0.54196221  0.83391756    -0.04900
C1474       C  0.23918760  0.55334018  0.85068247    -0.23300
C1475       C  0.24189851  0.58821828  0.85397298     0.13100
C1476       C  0.24575597  0.61084117  0.84057291    -0.12400
N1477       N  0.24587270  0.55189361  0.80372631     0.64700
H1478       H  0.23867704  0.51531974  0.83120550     0.12600
N1479       N  0.23944702  0.60119922  0.87074507     0.61400
H1480       H  0.24749722  0.63751538  0.84317302     0.08800
O1481       O  0.33805511  0.65969702  0.78095865    -0.40100
O1482       O  0.32991859  0.69842368  0.80001504    -0.39300
O1483       O  0.17139504  0.63997134  0.81624384    -0.39300
O1484       O  0.17486404  0.60265409  0.79617089    -0.37000
O1485       O  0.26568253  0.61115138  0.87819656    -0.37900
O1486       O  0.21106837  0.60999612  0.87633272    -0.34000
O1487       O  0.27364518  0.54125439  0.79817983    -0.35400
O1488       O  0.21913050  0.54413898  0.79608893    -0.39700
C1489       C  0.28641154  0.85818644  0.80544412    -0.13400
C1490       C  0.25513419  0.86745441  0.81208617     0.17000
C1491       C  0.22577718  0.85190617  0.80607790     0.03300
C1492       C  0.22793198  0.82758074  0.79340090    -0.11900
C1493       C  0.25915710  0.81815579  0.78651787    -0.03000
C1494       C  0.28873406  0.83367441  0.79276605     0.02500
C1495       C  0.25345198  0.89441840  0.82481306     0.09300
N1496       N  0.19351881  0.86079497  0.81263408     0.65700
H1497       H  0.20491794  0.81607490  0.78896404     0.18600
N1498       N  0.32122545  0.82533693  0.78630171     0.76200
H1499       H  0.30904140  0.87024559  0.81002562     0.10100
C1500       C  0.25465129  0.88707955  0.84211581     0.03800
C1501       C  0.25380226  0.91329430  0.85387068    -0.04900
C1502       C  0.25202621  0.94704802  0.84864918    -0.23300
C1503       C  0.25093025  0.95433140  0.83122546     0.13100
C1504       C  0.25150252  0.92795873  0.81947617    -0.12400
N1505       N  0.25715304  0.85314410  0.84791815     0.64700
H1506       H  0.25434660  0.90722141  0.86715829     0.12600
N1507       N  0.25101108  0.98824137  0.82522905     0.61400
H1508       H  0.25102184  0.93365610  0.80614815     0.08800
O1509       O  0.33966157  0.80508703  0.79433489    -0.40100
O1510       O  0.33395882  0.84318726  0.77481164    -0.39300
O1511       O  0.17491221  0.88053456  0.80439085    -0.39300
O1512       O  0.18101787  0.84365021  0.82444802    -0.37000
O1513       O  0.27872726  0.00307701  0.82304158    -0.37900
O1514       O  0.22477631  0.00013732  0.81855748    -0.34000
O1515       O  0.28555464  0.84145842  0.85190740    -0.35400
O1516       O  0.23090611  0.83764398  0.85233048    -0.39700
C1517       C  0.28141115  0.86703906  0.69885002    -0.13400
C1518       C  0.25254655  0.86929999  0.68870919     0.17000
C1519       C  0.22609861  0.84618973  0.69125883     0.03300
C1520       C  0.22861455  0.82197408  0.70398393    -0.11900
C1521       C  0.25738830  0.81979249  0.71422413    -0.03000
C1522       C  0.28403734  0.84263796  0.71151929     0.02500
C1523       C  0.25162045  0.89445936  0.67487903     0.09300
N1524       N  0.19640902  0.84698727  0.68109858     0.65700
H1525       H  0.20800495  0.80456496  0.70572093     0.18600
N1526       N  0.31365810  0.84196140  0.72170376     0.76200
H1527       H  0.30228189  0.88392085  0.69674844     0.10100
C1528       C  0.25716975  0.92903646  0.67793242     0.03800
C1529       C  0.25899830  0.95155680  0.66440760    -0.04900
C1530       C  0.25560440  0.94031881  0.64768880    -0.23300
C1531       C  0.24970645  0.90575190  0.64465809     0.13100
C1532       C  0.24781450  0.88325954  0.65819947    -0.12400
N1533       N  0.26089575  0.94175576  0.69469982     0.64700
H1534       H  0.26293861  0.97798103  0.66700785     0.12600
N1535       N  0.24777828  0.89264869  0.62789324     0.61400
H1536       H  0.24477422  0.85674660  0.65560641     0.08800
O1537       O  0.31591120  0.86147020  0.73422626    -0.40100
O1538       O  0.33971831  0.82750831  0.71622669    -0.39300
O1539       O  0.19245488  0.82507518  0.66972507    -0.39300
O1540       O  0.17138650  0.86386908  0.68601591    -0.37000
O1541       O  0.27447958  0.88432032  0.62038218    -0.37900
O1542       O  0.21985022  0.88263366  0.62222173    -0.34000
O1543       O  0.28964752  0.95043939  0.69986108    -0.35400
O1544       O  0.23518528  0.95117982  0.70273759    -0.39700
C1545       C  0.76530812  0.64640621  0.81170504    -0.13400
C1546       C  0.74646050  0.61757468  0.80748997     0.17000
C1547       C  0.72919955  0.61711266  0.79187360     0.03300
C1548       C  0.73145600  0.64467928  0.78090080    -0.11900
C1549       C  0.75111498  0.67288450  0.78493964    -0.03000
C1550       C  0.76802330  0.67370418  0.80055715     0.02500
C1551       C  0.74399994  0.58913865  0.81983485     0.09300
N1552       N  0.70997522  0.58851758  0.78666007     0.65700
H1553       H  0.71842137  0.64363821  0.76896034     0.18600
N1554       N  0.78638216  0.70287170  0.80574667     0.76200
H1555       H  0.77733526  0.64816691  0.82385419     0.10100
C1556       C  0.77281581  0.57527629  0.82763865     0.03800
C1557       C  0.76944299  0.54959842  0.83962876    -0.04900
C1558       C  0.73777929  0.53643121  0.84394611    -0.23300
C1559       C  0.70896155  0.54997418  0.83600779     0.13100
C1560       C  0.71225856  0.57643789  0.82439483    -0.12400
N1561       N  0.80588716  0.58635736  0.82327940     0.64700
H1562       H  0.79187870  0.53991892  0.84560921     0.12600
N1563       N  0.67628996  0.53613457  0.83890298     0.61400
H1564       H  0.68978870  0.58706699  0.81894779     0.08800
O1565       O  0.81810230  0.70229531  0.80561327    -0.40100
O1566       O  0.77135349  0.72602862  0.81363022    -0.39300
O1567       O  0.67830462  0.59051780  0.78636971    -0.39300
O1568       O  0.72429501  0.56522742  0.77855520    -0.37000
O1569       O  0.65498241  0.55287112  0.84720239    -0.37900
O1570       O  0.66646332  0.51167348  0.82999984    -0.34000
O1571       O  0.82263599  0.60343597  0.83376665    -0.35400
O1572       O  0.82083766  0.57272788  0.81101416    -0.39700
C1573       C  0.74948047  0.65310030  0.68686721    -0.13400
C1574       C  0.76436459  0.62221123  0.69123271     0.17000
C1575       C  0.77983898  0.61909579  0.70719911     0.03300
C1576       C  0.77958104  0.64625541  0.71847874    -0.11900
C1577       C  0.76334310  0.67643772  0.71436863    -0.03000
C1578       C  0.74843319  0.67993711  0.69835303     0.02500
C1579       C  0.76415614  0.59393540  0.67885302     0.09300
N1580       N  0.79444331  0.58801835  0.71253034     0.65700
H1581       H  0.79089060  0.64324092  0.73078039     0.18600
N1582       N  0.73327039  0.71095510  0.69332147     0.76200
H1583       H  0.73883696  0.65652417  0.67447126     0.10100
C1584       C  0.73412842  0.58305903  0.67104712     0.03800
C1585       C  0.73489081  0.55686541  0.65924333    -0.04900
C1586       C  0.76512668  0.54073272  0.65496811    -0.23300
C1587       C  0.79526108  0.55163675  0.66272940     0.13100
C1588       C  0.79453596  0.57818948  0.67441330    -0.12400
N1589       N  0.70244932  0.59797547  0.67512092     0.64700
H1590       H  0.71164091  0.54931883  0.65326095     0.12600
N1591       N  0.82664694  0.53540905  0.65937611     0.61400
H1592       H  0.81786533  0.58660052  0.67997209     0.08800
O1593       O  0.70164111  0.71334433  0.69295488    -0.40100
O1594       O  0.75088016  0.73283459  0.68591440    -0.39300
O1595       O  0.82597772  0.58574576  0.71390292    -0.39300
O1596       O  0.77603414  0.56611805  0.71940837    -0.37000
O1597       O  0.83549764  0.51084586  0.66841104    -0.37900
O1598       O  0.84846526  0.55038897  0.65060205    -0.34000
O1599       O  0.68828232  0.61695730  0.66453740    -0.35400
O1600       O  0.68557745  0.58637174  0.68725802    -0.39700
C1601       C  0.79411043  0.91344973  0.67350440    -0.13400
C1602       C  0.76471220  0.89469063  0.67626114     0.17000
C1603       C  0.73528361  0.90307615  0.66724620     0.03300
C1604       C  0.73563278  0.92979488  0.65581409    -0.11900
C1605       C  0.76497836  0.94854293  0.65299456    -0.03000
C1606       C  0.79455764  0.94008726  0.66194141     0.02500
C1607       C  0.76434051  0.86852469  0.68960714     0.09300
N1608       N  0.70493858  0.88421698  0.66925261     0.65700
H1609       H  0.71302115  0.93538865  0.64881430     0.18600
N1610       N  0.82480135  0.95920146  0.66008793     0.76200
H1611       H  0.81647454  0.90814801  0.68072046     0.10100
C1612       C  0.78784105  0.84187542  0.68995206     0.03800
C1613       C  0.78679482  0.81820738  0.70301305    -0.04900
C1614       C  0.76246973  0.82042412  0.71576450    -0.23300
C1615       C  0.73959588  0.84755793  0.71567519     0.13100
C1616       C  0.74082836  0.87133925  0.70272047    -0.12400
N1617       N  0.81225719  0.83781960  0.67689372     0.64700
H1618       H  0.80443928  0.79751644  0.70290871     0.12600
N1619       N  0.71602665  0.85229006  0.72906979     0.61400
H1620       H  0.72372035  0.89242981  0.70308124     0.08800
O1621       O  0.84953771  0.94629720  0.65249312    -0.40100
O1622       O  0.82952276  0.98449908  0.66943920    -0.39300
O1623       O  0.68045306  0.89728141  0.67697856    -0.39300
O1624       O  0.70001764  0.85862663  0.66013189    -0.37000
O1625       O  0.72429558  0.86987160  0.74167455    -0.37900
O1626       O  0.68544714  0.84522835  0.72670761    -0.34000
O1627       O  0.84254681  0.84531137  0.67982112    -0.35400
O1628       O  0.80532514  0.81954822  0.66433604    -0.39700
C1629       C  0.77059264  0.86945317  0.79996001    -0.13400
C1630       C  0.74473704  0.86731015  0.81195498     0.17000
C1631       C  0.72148128  0.84054090  0.81090298     0.03300
C1632       C  0.72465106  0.81640081  0.79814743    -0.11900
C1633       C  0.75089248  0.81818481  0.78638086    -0.03000
C1634       C  0.77396304  0.84513342  0.78729547     0.02500
C1635       C  0.74120347  0.89454006  0.82466027     0.09300
N1636       N  0.69487588  0.83707578  0.82287741     0.65700
H1637       H  0.70681893  0.79586871  0.79762776     0.18600
N1638       N  0.79977714  0.84927929  0.77493440     0.76200
H1639       H  0.78768513  0.89058602  0.80012513     0.10100
C1640       C  0.76835116  0.90433807  0.83502155     0.03800
C1641       C  0.76491826  0.93191658  0.84587321    -0.04900
C1642       C  0.73476131  0.95027144  0.84661829    -0.23300
C1643       C  0.70756705  0.94037874  0.83631128     0.13100
C1644       C  0.71100953  0.91275485  0.82545859    -0.12400
N1645       N  0.79949543  0.88636644  0.83479366     0.64700
H1646       H  0.78584049  0.93884896  0.85385605     0.12600
N1647       N  0.67697150  0.95920641  0.83595353     0.61400
H1648       H  0.69047358  0.90639932  0.81714017     0.08800
O1649       O  0.82982917  0.84239246  0.77868983    -0.40100
O1650       O  0.79370717  0.86602397  0.76177623    -0.39300
O1651       O  0.66510682  0.84368505  0.81847138    -0.39300
O1652       O  0.69987684  0.82021895  0.83610637    -0.37000
O1653       O  0.67554039  0.98586635  0.82735734    -0.37900
O1654       O  0.65004387  0.94546016  0.84077252    -0.34000
O1655       O  0.82499794  0.89960233  0.82804272    -0.35400
O1656       O  0.80316437  0.86100752  0.84416923    -0.39700
loop_ 
_geom_bond_atom_site_label_1 
_geom_bond_atom_site_label_2 
_geom_bond_distance 
_geom_bond_site_symmetry_2 
_ccdc_geom_bond_type 
O1            V9   1.909       .  S
O1           C11   1.267       .  A
O2            V9   1.903       .  S
O2           C12   1.266       .  A
O3            V9   1.897       .  S
O3           C13   1.264       .  A
O4            V9   1.900       .  S
O4           C14   1.265       .  A
O5           V10   1.903       .  S
O5           C14   1.265       .  A
O6           V10   1.897       .  S
O6           C13   1.265       .  A
O7           V10   1.896       .  S
O7           C12   1.263       .  A
O8           V10   1.902       .  S
O8           C11   1.265       .  A
V9           V10   2.080       .  T
C11        C1549   1.482       .  S
C12        C1614   1.475       .  S
C13        C1633   1.475       .  S
C14        C1577   1.474       .  S
O15          V23   1.891       .  S
O15          C25   1.263       .  A
O16          V23   1.890       .  S
O16          C26   1.264       .  A
O17          V23   1.893       .  S
O17          C27   1.265       .  A
O18          V23   1.898       .  S
O18          C28   1.263       .  A
O19          V24   1.897       .  S
O19          C28   1.266       .  A
O20          V24   1.901       .  S
O20          C27   1.264       .  A
O21          V24   1.911       .  S
O21          C26   1.267       .  A
O22          V24   1.908       .  S
O22          C25   1.266       .  A
V23          V24   2.084       .  T
C25        C1521   1.483       .  S
C26        C1465   1.488       .  S
C27        C1493   1.484       .  S
C28        C1437   1.484       .  S
O29          V37   1.897       .  S
O29          C39   1.265       .  A
O30          V37   1.896   1_655  S
O30          C40   1.262       .  A
O31          V37   1.902   1_655  S
O31          C41   1.265       .  A
O32          V37   1.893       .  S
O32          C42   1.264       .  A
O33          V38   1.902       .  S
O33          C42   1.265       .  A
O34          V38   1.899   1_655  S
O34          C41   1.264       .  A
O35          V38   1.901   1_655  S
O35          C40   1.265       .  A
O36          V38   1.905       .  S
O36          C39   1.265       .  A
V37          V38   2.085       .  T
C39        C1325   1.482       .  S
C40        C1381   1.469       .  S
C41        C1409   1.475       .  S
C42        C1353   1.479       .  S
C43        C1297   1.490       .  S
C43          C44   1.404       .  A
C43          C48   1.405       .  A
C44          C45   1.408       .  A
C44          H49   1.083       .  S
C45        C1390   1.490       .  S
C45          C46   1.405       .  A
C46          C47   1.404       .  A
C46          H50   1.077       .  S
C47        C1586   1.489       .  S
C47          C48   1.407       .  A
C48          H51   1.085       .  S
C52        C1278   1.484       .  S
C52          C53   1.407       .  A
C52          C57   1.403       .  A
C53          C54   1.406       .  A
C53          H58   1.082       .  S
C54        C1362   1.477       .  S
C54          C55   1.403       .  A
C55          C56   1.398       .  A
C55          H59   1.084       .  S
C56        C1446   1.471       .  S
C56          C57   1.398       .  A
C57          H60   1.085       .  S
O61          V69   1.897   1_655  S
O61          C71   1.263       .  A
O62          V69   1.902       .  S
O62          C72   1.264       .  A
O63          V69   1.909   1_655  S
O63          C73   1.266       .  A
O64          V69   1.901       .  S
O64          C74   1.266   1_545  A
O65          V70   1.897       .  S
O65          C74   1.263       .  A
O66          V70   1.892   1_655  S
O66          C73   1.264   1_565  A
O67          V70   1.902       .  S
O67          C72   1.266   1_565  A
O68          V70   1.897   1_655  S
O68          C71   1.265   1_565  A
V69          V70   2.085   1_545  T
C71        C1194   1.483   1_545  S
C72        C1250   1.487       .  S
C73        C1157   1.486       .  S
C74        C1213   1.480       .  S
C75        C1138   1.489       .  S
C75          C76   1.406       .  A
C75          C80   1.405   1_545  A
C76          C77   1.404   1_545  A
C76          H81   1.083       .  S
C77        C1222   1.485       .  S
C77          C78   1.404       .  A
C78          C79   1.403       .  A
C78          H82   1.082       .  S
C79        C1530   1.487       .  S
C79          C80   1.406       .  A
C80          H83   1.082       .  S
C84        C1605   1.484       .  S
C84          C85   1.400       .  A
C84          C89   1.407       .  A
C85          C86   1.401       .  A
C85          H90   1.083       .  S
C86        C1185   1.478       .  S
C86          C87   1.404   1_565  A
C87          C88   1.404       .  A
C87          H91   1.082       .  S
C88        C1101   1.483       .  S
C88          C89   1.405   1_545  A
C89          H92   1.085       .  S
O93         V101   1.912       .  S
O93         C103   1.267       .  A
O94         V101   1.909   1_554  S
O94         C104   1.266       .  A
O95         V101   1.905   1_554  S
O95         C105   1.265       .  A
O96         V101   1.905       .  S
O96         C106   1.265       .  A
O97         V102   1.898       .  S
O97         C106   1.264       .  A
O98         V102   1.897   1_554  S
O98         C105   1.264       .  A
O99         V102   1.903   1_554  S
O99         C104   1.266       .  A
O100        V102   1.899       .  S
O100        C103   1.265       .  A
V101        V102   2.084       .  T
C103       C1073   1.493       .  S
C104        C998   1.493       .  S
C105       C1017   1.485       .  S
C106       C1045   1.481       .  S
C107        C961   1.487       .  S
C107        C108   1.404       .  A
C107        C112   1.407       .  A
C108        C109   1.403       .  A
C108        H113   1.082       .  S
C109       C1082   1.483       .  S
C109        C110   1.406       .  A
C110        C111   1.408       .  A
C110        H114   1.082       .  S
C111       C1558   1.497       .  S
C111        C112   1.408       .  A
C112        H115   1.084       .  S
C116        C942   1.490       .  S
C116        C117   1.406       .  A
C116        C121   1.406       .  A
C117        C118   1.407       .  A
C117        H122   1.083       .  S
C118       C1474   1.483       .  S
C118        C119   1.403       .  A
C119        C120   1.402       .  A
C119        H123   1.080       .  S
C120       C1054   1.485       .  S
C120        C121   1.405       .  A
C121        H124   1.085       .  S
O125        V133   1.911       .  S
O125        C135   1.267       .  A
O126        V133   1.917       .  S
O126        C136   1.268       .  A
O127        V133   1.901       .  S
O127        C137   1.266       .  A
O128        V133   1.901       .  S
O128        C138   1.264       .  A
O129        V134   1.897       .  S
O129        C138   1.263       .  A
O130        V134   1.902       .  S
O130        C137   1.264       .  A
O131        V134   1.890       .  S
O131        C136   1.264       .  A
O132        V134   1.893       .  S
O132        C135   1.264       .  A
V133        V134   2.085       .  T
C135        C849   1.489       .  S
C136        C877   1.490       .  S
C137        C914   1.489       .  S
C138        C830   1.472       .  S
O139        V147   1.897   1_556  S
O139        C149   1.263   1_565  A
O140        V147   1.899       .  S
O140        C150   1.266   1_565  A
O141        V147   1.900       .  S
O141        C151   1.264   1_565  A
O142        V147   1.902   1_556  S
O142        C152   1.265   1_565  A
O143        V148   1.895   1_556  S
O143        C152   1.265       .  A
O144        V148   1.898       .  S
O144        C151   1.265       .  A
O145        V148   1.900       .  S
O145        C150   1.264       .  A
O146        V148   1.895   1_556  S
O146        C149   1.262       .  A
V147        V148   2.087   1_565  T
C149        C793   1.462       .  S
C150        C709   1.486       .  S
C151        C737   1.481       .  S
C152        C765   1.482       .  S
C153        C802   1.482       .  S
C153        C154   1.402   1_565  A
C153        C158   1.401       .  A
C154        C155   1.400       .  A
C154        H159   1.083       .  S
C155        C690   1.485       .  S
C155        C156   1.406   1_545  A
C156        C157   1.405       .  A
C156        H160   1.082       .  S
C157       C1502   1.483       .  S
C157        C158   1.405       .  A
C158        H161   1.082       .  S
C162        C774   1.487       .  S
C162        C163   1.406   1_545  A
C162        C167   1.409       .  A
C163        C164   1.404       .  A
C163        H168   1.082       .  S
C164       C1642   1.483       .  S
C164        C165   1.403   1_565  A
C165        C166   1.402       .  A
C165        H169   1.085       .  S
C166        C653   1.489       .  S
C166        C167   1.406       .  A
C167        H170   1.082       .  S
O171        V179   1.901       .  S
O171        C181   1.265       .  A
O172        V179   1.906       .  S
O172        C182   1.265       .  A
O173        V179   1.904       .  S
O173        C183   1.265       .  A
O174        V179   1.901       .  S
O174        C184   1.267       .  A
O175        V180   1.906       .  S
O175        C184   1.265       .  A
O176        V180   1.904       .  S
O176        C183   1.267       .  A
O177        V180   1.896       .  S
O177        C182   1.265       .  A
O178        V180   1.897       .  S
O178        C181   1.263       .  A
V179        V180   2.084       .  T
C181        C597   1.476       .  S
C182        C578   1.488       .  S
C183        C634   1.493       .  S
C184        C541   1.490       .  S
C185        C569   1.484       .  S
C185        C186   1.404       .  A
C185        C190   1.404       .  A
C186        C187   1.403       .  A
C186        H191   1.080       .  S
C187        C746   1.485       .  S
C187        C188   1.406   1_545  A
C188        C189   1.404       .  A
C188        H192   1.082       .  S
C189        C522   1.489       .  S
C189        C190   1.405   1_565  A
C190        H193   1.085       .  S
C194        C485   1.482       .  S
C194        C195   1.404   1_565  A
C194        C199   1.402       .  A
C195        C196   1.409       .  A
C195        H200   1.082       .  S
C196        C858   1.493       .  S
C196        C197   1.408       .  A
C197        C198   1.406   1_545  A
C197        H201   1.083       .  S
C198        C718   1.486       .  S
C198        C199   1.405       .  A
C199        H202   1.084       .  S
C203        C457   1.485       .  S
C203        C204   1.399       .  A
C203        C208   1.404       .  A
C204        C205   1.405       .  A
C204        H209   1.083       .  S
C205        C821   1.488       .  S
C205        C206   1.407       .  A
C206        C207   1.407       .  A
C206        H210   1.081       .  S
C207       C1026   1.490       .  S
C207        C208   1.408       .  A
C208        H211   1.085       .  S
C212        C429   1.487       .  S
C212        C213   1.404       .  A
C212        C217   1.409       .  A
C213        C214   1.404       .  A
C213        H218   1.084       .  S
C214        C550   1.483       .  S
C214        C215   1.403       .  A
C215        C216   1.405       .  A
C215        H219   1.084       .  S
C216        C989   1.490       .  S
C216        C217   1.409       .  A
C217        H220   1.083       .  S
C221        C401   1.498       .  S
C221        C222   1.411       .  A
C221        C226   1.409       .  A
C222        C223   1.409   1_565  A
C222        H227   1.080       .  S
C223        C625   1.491       .  S
C223        C224   1.406       .  A
C224        C225   1.404   1_545  A
C224        H228   1.085       .  S
C225       C1241   1.491       .  S
C225        C226   1.402       .  A
C226        H229   1.083       .  S
C230       C1166   1.485       .  S
C230        C231   1.406       .  A
C230        C235   1.404   1_545  A
C231        C232   1.404       .  A
C231        H236   1.082       .  S
C232        C905   1.479       .  S
C232        C233   1.404       .  A
C233        C234   1.406   1_545  A
C233        H237   1.084       .  S
C234        C382   1.487       .  S
C234        C235   1.404       .  A
C235        H238   1.083       .  S
C239       C1418   1.496       .  S
C239        C240   1.404       .  A
C239        C244   1.409       .  A
C240        C241   1.405       .  A
C240        H245   1.081       .  S
C241        C886   1.489       .  S
C241        C242   1.406       .  A
C242        C243   1.405       .  A
C242        H246   1.081       .  S
C243        C345   1.486       .  S
C243        C244   1.405       .  A
C244        H247   1.084       .  S
C248        C317   1.488       .  S
C248        C249   1.407       .  A
C248        C253   1.408       .  A
C249        C250   1.406       .  A
C249        H254   1.083       .  S
C250        C606   1.485       .  S
C250        C251   1.400       .  A
C251        C252   1.402       .  A
C251        H255   1.083       .  S
C252       C1334   1.485       .  S
C252        C253   1.404       .  A
C253        H256   1.082       .  S
O257        V265   1.903       .  S
O257        C267   1.265       .  A
O258        V265   1.899   1_455  S
O258        C268   1.264       .  A
O259        V265   1.916   1_455  S
O259        C269   1.268       .  A
O260        V265   1.916       .  S
O260        C270   1.269       .  A
O261        V266   1.900       .  S
O261        C270   1.266       .  A
O262        V266   1.894   1_455  S
O262        C269   1.264       .  A
O263        V266   1.903   1_455  S
O263        C268   1.265       .  A
O264        V266   1.899       .  S
O264        C267   1.266       .  A
V265        V266   2.083       .  T
C267        C466   1.486       .  S
C268        C513   1.474       .  S
C269        C438   1.487       .  S
C270        C494   1.498       .  S
O271        V279   1.907       .  S
O271        C281   1.266       .  A
O272        V279   1.904       .  S
O272        C282   1.268       .  A
O273        V279   1.905       .  S
O273        C283   1.265       .  A
O274        V279   1.903       .  S
O274        C284   1.264       .  A
O275        V280   1.903       .  S
O275        C284   1.265       .  A
O276        V280   1.902       .  S
O276        C283   1.266       .  A
O277        V280   1.901       .  S
O277        C282   1.264       .  A
O278        V280   1.898       .  S
O278        C281   1.266       .  A
V279        V280   2.083       .  T
C281        C373   1.491       .  S
C282        C326   1.491       .  S
C283        C354   1.485       .  S
C284        C410   1.475       .  S
O285        V293   1.902       .  S
O285        C295   1.267       .  A
O286        V293   1.904       .  S
O286        C296   1.264       .  A
O287        V293   1.904       .  S
O287        C297   1.265       .  A
O288        V293   1.903       .  S
O288        C298   1.267       .  A
O289        V294   1.898       .  S
O289        C298   1.264       .  A
O290        V294   1.895       .  S
O290        C297   1.265       .  A
O291        V294   1.899       .  S
O291        C296   1.266       .  A
O292        V294   1.908       .  S
O292        C295   1.266       .  A
V293        V294   2.084       .  T
C295       C1306   1.493       .  S
C296       C1129   1.486       .  S
C297       C1269   1.485       .  S
C298       C1110   1.486       .  S
O299        V307   1.896   1_455  S
O299        C309   1.264       .  A
O300        V307   1.899       .  S
O300        C310   1.263       .  A
O301        V307   1.899   1_455  S
O301        C311   1.266       .  A
O302        V307   1.899       .  S
O302        C312   1.266       .  A
O303        V308   1.904       .  S
O303        C312   1.265       .  A
O304        V308   1.899   1_455  S
O304        C311   1.264       .  A
O305        V308   1.909       .  S
O305        C310   1.268       .  A
O306        V308   1.915   1_455  S
O306        C309   1.268       .  A
V307        V308   2.084       .  T
C309        C933   1.490       .  S
C310        C662   1.490       .  S
C311        C681   1.487       .  S
C312        C970   1.490       .  S
C313        C314   1.403       .  A
C313        C318   1.404       .  A
C313        H323   1.081       .  S
C314        C319   1.484       .  S
C314        C315   1.409       .  A
C315        C316   1.400       .  A
C315        N320   1.429       .  S
C316        C317   1.405       .  A
C316        H321   1.081       .  S
C317        C318   1.413       .  A
C318        N322   1.429       .  S
C319        C324   1.409       .  A
C319        C328   1.401       .  A
N320        O335   1.262       .  A
N320        O336   1.262       .  A
N322        O333   1.262       .  A
N322        O334   1.262       .  A
C324        C325   1.401       .  A
C324        N329   1.429       .  S
C325        C326   1.407       .  A
C325        H330   1.081       .  S
C326        C327   1.418       .  A
C327        C328   1.403       .  A
C327        N331   1.429       .  S
C328        H332   1.082       .  S
N329        O339   1.262       .  A
N329        O340   1.262       .  A
N331        O337   1.262       .  A
N331        O338   1.262       .  A
C341        C342   1.405       .  A
C341        C346   1.403       .  A
C341        H351   1.082       .  S
C342        C347   1.488       .  S
C342        C343   1.411       .  A
C343        C344   1.402       .  A
C343        N348   1.429       .  S
C344        C345   1.404       .  A
C344        H349   1.082       .  S
C345        C346   1.410       .  A
C346        N350   1.429       .  S
C347        C352   1.412       .  A
C347        C356   1.403       .  A
N348        O363   1.262       .  A
N348        O364   1.262       .  A
N350        O361   1.262       .  A
N350        O362   1.262       .  A
C352        C353   1.402       .  A
C352        N357   1.429       .  S
C353        C354   1.404       .  A
C353        H358   1.082       .  S
C354        C355   1.413       .  A
C355        C356   1.403       .  A
C355        N359   1.429       .  S
C356        H360   1.082       .  S
N357        O367   1.262       .  A
N357        O368   1.262       .  A
N359        O365   1.262       .  A
N359        O366   1.262       .  A
C369        C370   1.400       .  A
C369        C374   1.403       .  A
C369        H379   1.082       .  S
C370        C375   1.478       .  S
C370        C371   1.406       .  A
C371        C372   1.400       .  A
C371        N376   1.429       .  S
C372        C373   1.408       .  A
C372        H377   1.082       .  S
C373        C374   1.417       .  A
C374        N378   1.428       .  S
C375        C380   1.407       .  A
C375        C384   1.399       .  A
N376        O391   1.262       .  A
N376        O392   1.262       .  A
N378        O389   1.262       .  A
N378        O390   1.262       .  A
C380        C381   1.403       .  A
C380        N385   1.428       .  S
C381        C382   1.407       .  A
C381        H386   1.081       .  S
C382        C383   1.414       .  A
C383        C384   1.400       .  A
C383        N387   1.429       .  S
C384        H388   1.082       .  S
N385        O395   1.262       .  A
N385        O396   1.262       .  A
N387        O393   1.262       .  A
N387        O394   1.261       .  A
C397        C398   1.403       .  A
C397        C402   1.404       .  A
C397        H407   1.079       .  S
C398        C403   1.488       .  S
C398        C399   1.409       .  A
C399        C400   1.399       .  A
C399        N404   1.429       .  S
C400        C401   1.409       .  A
C400        H405   1.080       .  S
C401        C402   1.416       .  A
C402        N406   1.428       .  S
C403        C408   1.412       .  A
C403        C412   1.405       .  A
N404        O419   1.262       .  A
N404        O420   1.262       .  A
N406        O417   1.262       .  A
N406        O418   1.262       .  A
C408        C409   1.402       .  A
C408        N413   1.429       .  S
C409        C410   1.402       .  A
C409        H414   1.081       .  S
C410        C411   1.409       .  A
C411        C412   1.401       .  A
C411        N415   1.429       .  S
C412        H416   1.079       .  S
N413        O423   1.262       .  A
N413        O424   1.262       .  A
N415        O421   1.262       .  A
N415        O422   1.262       .  A
C425        C426   1.405       .  A
C425        C430   1.404       .  A
C425        H435   1.080       .  S
C426        C431   1.491       .  S
C426        C427   1.411       .  A
C427        C428   1.403       .  A
C427        N432   1.428       .  S
C428        C429   1.403       .  A
C428        H433   1.081       .  S
C429        C430   1.413       .  A
C430        N434   1.429       .  S
C431        C436   1.410       .  A
C431        C440   1.406       .  A
N432        O447   1.262       .  A
N432        O448   1.262       .  A
N434        O445   1.262       .  A
N434        O446   1.262       .  A
C436        C437   1.400       .  A
C436        N441   1.429       .  S
C437        C438   1.406       .  A
C437        H442   1.081       .  S
C438        C439   1.412       .  A
C439        C440   1.406       .  A
C439        N443   1.429       .  S
C440        H444   1.081       .  S
N441        O451   1.262       .  A
N441        O452   1.262       .  A
N443        O449   1.262       .  A
N443        O450   1.261       .  A
C453        C454   1.401       .  A
C453        C458   1.402       .  A
C453        H463   1.081       .  S
C454        C459   1.479       .  S
C454        C455   1.408       .  A
C455        C456   1.400       .  A
C455        N460   1.428       .  S
C456        C457   1.403       .  A
C456        H461   1.081       .  S
C457        C458   1.415       .  A
C458        N462   1.430       .  S
C459        C464   1.407       .  A
C459        C468   1.401       .  A
N460        O475   1.262       .  A
N460        O476   1.261       .  A
N462        O473   1.262       .  A
N462        O474   1.262       .  A
C464        C465   1.400       .  A
C464        N469   1.429       .  S
C465        C466   1.406       .  A
C465        H470   1.082       .  S
C466        C467   1.415       .  A
C467        C468   1.402       .  A
C467        N471   1.429       .  S
C468        H472   1.082       .  S
N469        O479   1.262       .  A
N469        O480   1.261       .  A
N471        O477   1.262       .  A
N471        O478   1.262       .  A
C481        C482   1.406       .  A
C481        C486   1.405       .  A
C481        H491   1.080       .  S
C482        C487   1.492       .  S
C482        C483   1.413       .  A
C483        C484   1.403       .  A
C483        N488   1.429       .  S
C484        C485   1.402       .  A
C484        H489   1.081       .  S
C485        C486   1.409       .  A
C486        N490   1.428       .  S
C487        C492   1.410       .  A
C487        C496   1.404       .  A
N488        O503   1.262       .  A
N488        O504   1.262       .  A
N490        O501   1.262       .  A
N490        O502   1.262       .  A
C492        C493   1.404       .  A
C492        N497   1.429       .  S
C493        C494   1.410       .  A
C493        H498   1.081       .  S
C494        C495   1.416       .  A
C495        C496   1.406       .  A
C495        N499   1.428       .  S
C496        H500   1.081       .  S
N497        O507   1.262       .  A
N497        O508   1.262       .  A
N499        O505   1.262       .  A
N499        O506   1.262       .  A
C509        C510   1.406       .  A
C509        C514   1.400       .  A
C509        H519   1.078       .  S
C510        C515   1.490       .  S
C510        C511   1.414       .  A
C511        C512   1.402       .  A
C511        N516   1.429       .  S
C512        C513   1.401       .  A
C512        H517   1.080       .  S
C513        C514   1.408       .  A
C514        N518   1.429       .  S
C515        C520   1.412       .  A
C515        C524   1.405       .  A
N516        O531   1.262       .  A
N516        O532   1.262       .  A
N518        O529   1.262       .  A
N518        O530   1.262       .  A
C520        C521   1.399       .  A
C520        N525   1.429       .  S
C521        C522   1.404       .  A
C521        H526   1.081       .  S
C522        C523   1.414       .  A
C523        C524   1.403       .  A
C523        N527   1.430       .  S
C524        H528   1.079       .  S
N525        O535   1.262       .  A
N525        O536   1.262       .  A
N527        O533   1.262       .  A
N527        O534   1.262       .  A
C537        C538   1.402       .  A
C537        C542   1.405       .  A
C537        H547   1.081       .  S
C538        C543   1.483       .  S
C538        C539   1.407       .  A
C539        C540   1.400       .  A
C539        N544   1.428       .  S
C540        C541   1.407       .  A
C540        H545   1.081       .  S
C541        C542   1.417       .  A
C542        N546   1.429       .  S
C543        C548   1.409       .  A
C543        C552   1.403       .  A
N544        O559   1.262       .  A
N544        O560   1.262       .  A
N546        O557   1.261       .  A
N546        O558   1.262       .  A
C548        C549   1.402       .  A
C548        N553   1.428       .  S
C549        C550   1.404       .  A
C549        H554   1.080       .  S
C550        C551   1.411       .  A
C551        C552   1.402       .  A
C551        N555   1.429       .  S
C552        H556   1.080       .  S
N553        O563   1.262       .  A
N553        O564   1.262       .  A
N555        O561   1.262       .  A
N555        O562   1.262       .  A
C565        C566   1.402       .  A
C565        C570   1.400       .  A
C565        H575   1.080       .  S
C566        C571   1.480       .  S
C566        C567   1.408       .  A
C567        C568   1.400       .  A
C567        N572   1.429       .  S
C568        C569   1.405       .  A
C568        H573   1.080       .  S
C569        C570   1.412       .  A
C570        N574   1.429       .  S
C571        C576   1.406       .  A
C571        C580   1.402       .  A
N572        O587   1.262       .  A
N572        O588   1.262       .  A
N574        O585   1.262       .  A
N574        O586   1.262       .  A
C576        C577   1.398       .  A
C576        N581   1.429       .  S
C577        C578   1.407       .  A
C577        H582   1.081       .  S
C578        C579   1.416       .  A
C579        C580   1.404       .  A
C579        N583   1.429       .  S
C580        H584   1.081       .  S
N581        O591   1.262       .  A
N581        O592   1.262       .  A
N583        O589   1.262       .  A
N583        O590   1.262       .  A
C593        C594   1.404       .  A
C593        C598   1.400       .  A
C593        H603   1.080       .  S
C594        C599   1.488       .  S
C594        C595   1.413       .  A
C595        C596   1.399       .  A
C595        N600   1.429       .  S
C596        C597   1.401       .  A
C596        H601   1.081       .  S
C597        C598   1.410       .  A
C598        N602   1.428       .  S
C599        C604   1.413       .  A
C599        C608   1.403       .  A
N600        O615   1.262       .  A
N600        O616   1.262       .  A
N602        O613   1.262       .  A
N602        O614   1.262       .  A
C604        C605   1.401       .  A
C604        N609   1.429       .  S
C605        C606   1.402       .  A
C605        H610   1.081       .  S
C606        C607   1.414       .  A
C607        C608   1.400       .  A
C607        N611   1.430       .  S
C608        H612   1.079       .  S
N609        O619   1.262       .  A
N609        O620   1.262       .  A
N611        O617   1.262       .  A
N611        O618   1.262       .  A
C621        C622   1.401       .  A
C621        C626   1.403       .  A
C621        H631   1.081       .  S
C622        C627   1.482       .  S
C622        C623   1.407       .  A
C623        C624   1.402       .  A
C623        N628   1.428       .  S
C624        C625   1.407       .  A
C624        H629   1.081       .  S
C625        C626   1.414       .  A
C626        N630   1.429       .  S
C627        C632   1.405       .  A
C627        C636   1.401       .  A
N628        O643   1.262       .  A
N628        O644   1.262       .  A
N630        O641   1.262   1_545  A
N630        O642   1.261       .  A
C632        C633   1.401       .  A
C632        N637   1.428       .  S
C633        C634   1.408       .  A
C633        H638   1.080       .  S
C634        C635   1.419       .  A
C635        C636   1.404       .  A
C635        N639   1.429       .  S
C636        H640   1.081       .  S
N637        O647   1.262       .  A
N637        O648   1.262       .  A
N639        O645   1.262       .  A
N639        O646   1.262       .  A
C649        C650   1.403       .  A
C649        C654   1.402       .  A
C649        H659   1.081       .  S
C650        C655   1.484       .  S
C650        C651   1.409       .  A
C651        C652   1.403       .  A
C651        N656   1.429       .  S
C652        C653   1.407       .  A
C652        H657   1.081       .  S
C653        C654   1.411       .  A
C654        N658   1.429       .  S
C655        C660   1.410       .  A
C655        C664   1.401       .  A
N656        O671   1.262       .  A
N656        O672   1.262       .  A
N658        O669   1.262       .  A
N658        O670   1.262       .  A
C660        C661   1.403       .  A
C660        N665   1.428       .  S
C661        C662   1.406       .  A
C661        H666   1.082       .  S
C662        C663   1.417       .  A
C663        C664   1.402       .  A
C663        N667   1.429       .  S
C664        H668   1.082       .  S
N665        O675   1.262       .  A
N665        O676   1.262       .  A
N667        O673   1.262       .  A
N667        O674   1.262       .  A
C677        C678   1.400       .  A
C677        C682   1.400       .  A
C677        H687   1.081       .  S
C678        C683   1.478       .  S
C678        C679   1.406       .  A
C679        C680   1.399       .  A
C679        N684   1.429       .  S
C680        C681   1.408       .  A
C680        H685   1.081       .  S
C681        C682   1.417       .  A
C682        N686   1.429       .  S
C683        C688   1.408       .  A
C683        C692   1.400       .  A
N684        O699   1.262       .  A
N684        O700   1.262       .  A
N686        O697   1.262       .  A
N686        O698   1.262       .  A
C688        C689   1.399       .  A
C688        N693   1.428       .  S
C689        C690   1.404       .  A
C689        H694   1.081       .  S
C690        C691   1.416       .  A
C691        C692   1.399       .  A
C691        N695   1.430       .  S
C692        H696   1.081       .  S
N693        O703   1.262       .  A
N693        O704   1.262       .  A
N695        O701   1.262       .  A
N695        O702   1.262       .  A
C705        C706   1.401   1_545  A
C705        C710   1.402       .  A
C705        H715   1.082       .  S
C706        C711   1.482       .  S
C706        C707   1.409       .  A
C707        C708   1.400       .  A
C707        N712   1.428       .  S
C708        C709   1.406   1_565  A
C708        H713   1.082       .  S
C709        C710   1.416       .  A
C710        N714   1.429       .  S
C711        C716   1.409       .  A
C711        C720   1.403       .  A
N712        O727   1.262       .  A
N712        O728   1.262       .  A
N714        O725   1.262       .  A
N714        O726   1.262       .  A
C716        C717   1.402       .  A
C716        N721   1.429       .  S
C717        C718   1.406       .  A
C717        H722   1.081       .  S
C718        C719   1.411       .  A
C719        C720   1.402       .  A
C719        N723   1.429       .  S
C720        H724   1.081   1_565  S
N721        O731   1.262   1_565  A
N721        O732   1.262       .  A
N723        O729   1.262   1_565  A
N723        O730   1.262       .  A
C733        C734   1.402   1_565  A
C733        C738   1.400       .  A
C733        H743   1.081       .  S
C734        C739   1.482       .  S
C734        C735   1.409       .  A
C735        C736   1.399       .  A
C735        N740   1.429       .  S
C736        C737   1.405       .  A
C736        H741   1.081       .  S
C737        C738   1.414   1_545  A
C738        N742   1.429       .  S
C739        C744   1.409       .  A
C739        C748   1.403       .  A
N740        O755   1.262       .  A
N740        O756   1.262       .  A
N742        O753   1.262       .  A
N742        O754   1.262       .  A
C744        C745   1.396       .  A
C744        N749   1.429       .  S
C745        C746   1.404       .  A
C745        H750   1.081       .  S
C746        C747   1.414       .  A
C747        C748   1.402       .  A
C747        N751   1.430       .  S
C748        H752   1.080       .  S
N749        O759   1.262   1_545  A
N749        O760   1.262       .  A
N751        O757   1.262   1_545  A
N751        O758   1.262       .  A
C761        C762   1.401   1_565  A
C761        C766   1.400       .  A
C761        H771   1.081       .  S
C762        C767   1.479       .  S
C762        C763   1.407       .  A
C763        C764   1.399       .  A
C763        N768   1.429       .  S
C764        C765   1.406       .  A
C764        H769   1.081       .  S
C765        C766   1.413   1_545  A
C766        N770   1.428       .  S
C767        C772   1.407       .  A
C767        C776   1.400       .  A
N768        O783   1.262       .  A
N768        O784   1.262       .  A
N770        O781   1.262       .  A
N770        O782   1.262       .  A
C772        C773   1.399       .  A
C772        N777   1.429       .  S
C773        C774   1.405       .  A
C773        H778   1.082       .  S
C774        C775   1.415       .  A
C775        C776   1.402       .  A
C775        N779   1.428       .  S
C776        H780   1.082       .  S
N777        O787   1.262   1_545  A
N777        O788   1.262       .  A
N779        O785   1.262   1_545  A
N779        O786   1.261       .  A
C789        C790   1.403       .  A
C789        C794   1.397       .  A
C789        H799   1.080       .  S
C790        C795   1.477       .  S
C790        C791   1.410   1_545  A
C791        C792   1.399       .  A
C791        N796   1.429       .  S
C792        C793   1.400   1_565  A
C792        H797   1.081       .  S
C793        C794   1.406       .  A
C794        N798   1.429       .  S
C795        C800   1.407       .  A
C795        C804   1.403   1_545  A
N796        O811   1.262       .  A
N796        O812   1.262       .  A
N798        O809   1.262       .  A
N798        O810   1.262       .  A
C800        C801   1.394       .  A
C800        N805   1.429       .  S
C801        C802   1.405   1_545  A
C801        H806   1.081       .  S
C802        C803   1.414       .  A
C803        C804   1.401       .  A
C803        N807   1.430       .  S
C804        H808   1.081       .  S
N805        O815   1.262       .  A
N805        O816   1.262       .  A
N807        O813   1.262       .  A
N807        O814   1.262       .  A
C817        C818   1.404       .  A
C817        C822   1.401       .  A
C817        H827   1.078       .  S
C818        C823   1.489       .  S
C818        C819   1.412       .  A
C819        C820   1.397       .  A
C819        N824   1.430       .  S
C820        C821   1.405       .  A
C820        H825   1.081       .  S
C821        C822   1.413       .  A
C822        N826   1.429       .  S
C823        C828   1.415       .  A
C823        C832   1.405       .  A
N824        O839   1.262       .  A
N824        O840   1.262       .  A
N826        O837   1.262       .  A
N826        O838   1.262       .  A
C828        C829   1.400       .  A
C828        N833   1.429       .  S
C829        C830   1.400       .  A
C829        H834   1.081       .  S
C830        C831   1.408       .  A
C831        C832   1.399       .  A
C831        N835   1.428       .  S
C832        H836   1.078       .  S
N833        O843   1.262       .  A
N833        O844   1.262       .  A
N835        O841   1.262       .  A
N835        O842   1.262       .  A
C845        C846   1.401       .  A
C845        C850   1.404       .  A
C845        H855   1.082       .  S
C846        C851   1.480       .  S
C846        C847   1.406       .  A
C847        C848   1.400       .  A
C847        N852   1.429       .  S
C848        C849   1.408       .  A
C848        H853   1.081       .  S
C849        C850   1.416       .  A
C850        N854   1.429       .  S
C851        C856   1.407       .  A
C851        C860   1.400       .  A
N852        O867   1.262       .  A
N852        O868   1.262       .  A
N854        O865   1.261       .  A
N854        O866   1.262       .  A
C856        C857   1.404       .  A
C856        N861   1.429       .  S
C857        C858   1.409       .  A
C857        H862   1.081       .  S
C858        C859   1.414       .  A
C859        C860   1.401       .  A
C859        N863   1.429       .  S
C860        H864   1.082       .  S
N861        O871   1.262       .  A
N861        O872   1.262       .  A
N863        O869   1.262       .  A
N863        O870   1.262       .  A
C873        C874   1.404       .  A
C873        C878   1.406       .  A
C873        H883   1.082       .  S
C874        C879   1.484       .  S
C874        C875   1.406       .  A
C875        C876   1.397       .  A
C875        N880   1.429       .  S
C876        C877   1.408       .  A
C876        H881   1.082       .  S
C877        C878   1.416       .  A
C878        N882   1.428       .  S
C879        C884   1.407       .  A
C879        C888   1.404       .  A
N880        O895   1.262       .  A
N880        O896   1.262       .  A
N882        O893   1.262       .  A
N882        O894   1.262       .  A
C884        C885   1.398       .  A
C884        N889   1.428       .  S
C885        C886   1.406       .  A
C885        H890   1.081       .  S
C886        C887   1.414       .  A
C887        C888   1.403       .  A
C887        N891   1.429       .  S
C888        H892   1.081       .  S
N889        O899   1.262       .  A
N889        O900   1.262       .  A
N891        O897   1.262       .  A
N891        O898   1.262       .  A
C901        C902   1.406       .  A
C901        C906   1.402       .  A
C901        H911   1.080       .  S
C902        C907   1.492       .  S
C902        C903   1.415       .  A
C903        C904   1.402       .  A
C903        N908   1.429       .  S
C904        C905   1.401       .  A
C904        H909   1.081       .  S
C905        C906   1.407       .  A
C906        N910   1.428       .  S
C907        C912   1.412       .  A
C907        C916   1.404       .  A
N908        O923   1.262       .  A
N908        O924   1.262       .  A
N910        O921   1.262       .  A
N910        O922   1.262       .  A
C912        C913   1.401       .  A
C912        N917   1.429       .  S
C913        C914   1.406       .  A
C913        H918   1.081       .  S
C914        C915   1.415       .  A
C915        C916   1.402       .  A
C915        N919   1.429       .  S
C916        H920   1.080       .  S
N917        O927   1.262       .  A
N917        O928   1.262       .  A
N919        O925   1.262       .  A
N919        O926   1.262       .  A
C929        C930   1.404       .  A
C929        C934   1.406       .  A
C929        H939   1.081       .  S
C930        C935   1.487       .  S
C930        C931   1.408       .  A
C931        C932   1.400       .  A
C931        N936   1.429       .  S
C932        C933   1.407       .  A
C932        H937   1.081       .  S
C933        C934   1.415       .  A
C934        N938   1.428       .  S
C935        C940   1.409       .  A
C935        C944   1.404       .  A
N936        O951   1.262       .  A
N936        O952   1.262       .  A
N938        O949   1.262       .  A
N938        O950   1.262       .  A
C940        C941   1.402       .  A
C940        N945   1.428       .  S
C941        C942   1.406       .  A
C941        H946   1.080       .  S
C942        C943   1.413       .  A
C943        C944   1.404       .  A
C943        N947   1.429       .  S
C944        H948   1.080       .  S
N945        O955   1.262       .  A
N945        O956   1.262       .  A
N947        O953   1.262       .  A
N947        O954   1.262       .  A
C957        C958   1.402       .  A
C957        C962   1.404       .  A
C957        H967   1.081       .  S
C958        C963   1.480       .  S
C958        C959   1.407       .  A
C959        C960   1.399       .  A
C959        N964   1.428       .  S
C960        C961   1.405       .  A
C960        H965   1.081       .  S
C961        C962   1.414       .  A
C962        N966   1.429       .  S
C963        C968   1.405       .  A
C963        C972   1.401       .  A
N964        O979   1.262       .  A
N964        O980   1.262       .  A
N966        O977   1.262       .  A
N966        O978   1.262       .  A
C968        C969   1.400       .  A
C968        N973   1.428       .  S
C969        C970   1.408       .  A
C969        H974   1.081       .  S
C970        C971   1.417       .  A
C971        C972   1.403       .  A
C971        N975   1.429       .  S
C972        H976   1.082       .  S
N973        O983   1.262       .  A
N973        O984   1.262       .  A
N975        O981   1.262       .  A
N975        O982   1.262       .  A
C985        C986   1.403       .  A
C985        C990   1.404       .  A
C985        H995   1.082       .  S
C986        C991   1.486       .  S
C986        C987   1.410       .  A
C987        C988   1.403       .  A
C987        N992   1.429       .  S
C988        C989   1.406       .  A
C988        H993   1.082       .  S
C989        C990   1.412       .  A
C990        N994   1.429       .  S
C991        C996   1.409       .  A
C991       C1000   1.401       .  A
N992       O1007   1.262       .  A
N992       O1008   1.262       .  A
N994       O1005   1.262       .  A
N994       O1006   1.262       .  A
C996        C997   1.404       .  A
C996       N1001   1.429       .  S
C997        C998   1.409       .  A
C997       H1002   1.082       .  S
C998        C999   1.416       .  A
C999       C1000   1.403       .  A
C999       N1003   1.428       .  S
C1000      H1004   1.083       .  S
N1001      O1011   1.262       .  A
N1001      O1012   1.262       .  A
N1003      O1009   1.261       .  A
N1003      O1010   1.261       .  A
C1013      C1014   1.402       .  A
C1013      C1018   1.400       .  A
C1013      H1023   1.082       .  S
C1014      C1019   1.479       .  S
C1014      C1015   1.407       .  A
C1015      C1016   1.401       .  A
C1015      N1020   1.429       .  S
C1016      C1017   1.408       .  A
C1016      H1021   1.082       .  S
C1017      C1018   1.413       .  A
C1018      N1022   1.429       .  S
C1019      C1024   1.408       .  A
C1019      C1028   1.400       .  A
N1020      O1035   1.262       .  A
N1020      O1036   1.262       .  A
N1022      O1033   1.262       .  A
N1022      O1034   1.262       .  A
C1024      C1025   1.402       .  A
C1024      N1029   1.428       .  S
C1025      C1026   1.407       .  A
C1025      H1030   1.080       .  S
C1026      C1027   1.414       .  A
C1027      C1028   1.400       .  A
C1027      N1031   1.429       .  S
C1028      H1032   1.081       .  S
N1029      O1039   1.262       .  A
N1029      O1040   1.262       .  A
N1031      O1037   1.262       .  A
N1031      O1038   1.262       .  A
C1041      C1042   1.402       .  A
C1041      C1046   1.400       .  A
C1041      H1051   1.081       .  S
C1042      C1047   1.484       .  S
C1042      C1043   1.411       .  A
C1043      C1044   1.401       .  A
C1043      N1048   1.429       .  S
C1044      C1045   1.405       .  A
C1044      H1049   1.082       .  S
C1045      C1046   1.411       .  A
C1046      N1050   1.427       .  S
C1047      C1052   1.411       .  A
C1047      C1056   1.403       .  A
N1048      O1063   1.262       .  A
N1048      O1064   1.262       .  A
N1050      O1061   1.261       .  A
N1050      O1062   1.262       .  A
C1052      C1053   1.400       .  A
C1052      N1057   1.429       .  S
C1053      C1054   1.403       .  A
C1053      H1058   1.081       .  S
C1054      C1055   1.414       .  A
C1055      C1056   1.401       .  A
C1055      N1059   1.429       .  S
C1056      H1060   1.080       .  S
N1057      O1067   1.262       .  A
N1057      O1068   1.262       .  A
N1059      O1065   1.262       .  A
N1059      O1066   1.262       .  A
C1069      C1070   1.401       .  A
C1069      C1074   1.404       .  A
C1069      H1079   1.082       .  S
C1070      C1075   1.484       .  S
C1070      C1071   1.408       .  A
C1071      C1072   1.403       .  A
C1071      N1076   1.429       .  S
C1072      C1073   1.409       .  A
C1072      H1077   1.081       .  S
C1073      C1074   1.416       .  A
C1074      N1078   1.428       .  S
C1075      C1080   1.410       .  A
C1075      C1084   1.404       .  A
N1076      O1091   1.262       .  A
N1076      O1092   1.262       .  A
N1078      O1089   1.262       .  A
N1078      O1090   1.262       .  A
C1080      C1081   1.401       .  A
C1080      N1085   1.428       .  S
C1081      C1082   1.402       .  A
C1081      H1086   1.082       .  S
C1082      C1083   1.412       .  A
C1083      C1084   1.404       .  A
C1083      N1087   1.429       .  S
C1084      H1088   1.082       .  S
N1085      O1095   1.262       .  A
N1085      O1096   1.262       .  A
N1087      O1093   1.262       .  A
N1087      O1094   1.262       .  A
C1097      C1098   1.405       .  A
C1097      C1102   1.401       .  A
C1097      H1107   1.078       .  S
C1098      C1103   1.493       .  S
C1098      C1099   1.415       .  A
C1099      C1100   1.402       .  A
C1099      N1104   1.430       .  S
C1100      C1101   1.402       .  A
C1100      H1105   1.080       .  S
C1101      C1102   1.410       .  A
C1102      N1106   1.428       .  S
C1103      C1108   1.414       .  A
C1103      C1112   1.404       .  A
N1104      O1119   1.262       .  A
N1104      O1120   1.262       .  A
N1106      O1117   1.261       .  A
N1106      O1118   1.262   1_545  A
C1108      C1109   1.401       .  A
C1108      N1113   1.429       .  S
C1109      C1110   1.404       .  A
C1109      H1114   1.081       .  S
C1110      C1111   1.415       .  A
C1111      C1112   1.401       .  A
C1111      N1115   1.429       .  S
C1112      H1116   1.079       .  S
N1113      O1123   1.262       .  A
N1113      O1124   1.261       .  A
N1115      O1121   1.262       .  A
N1115      O1122   1.262       .  A
C1125      C1126   1.403       .  A
C1125      C1130   1.403       .  A
C1125      H1135   1.081       .  S
C1126      C1131   1.483       .  S
C1126      C1127   1.407       .  A
C1127      C1128   1.399       .  A
C1127      N1132   1.428       .  S
C1128      C1129   1.406       .  A
C1128      H1133   1.081       .  S
C1129      C1130   1.416       .  A
C1130      N1134   1.429       .  S
C1131      C1136   1.408       .  A
C1131      C1140   1.402       .  A
N1132      O1147   1.262       .  A
N1132      O1148   1.262       .  A
N1134      O1145   1.262       .  A
N1134      O1146   1.262       .  A
C1136      C1137   1.400       .  A
C1136      N1141   1.429       .  S
C1137      C1138   1.406       .  A
C1137      H1142   1.081       .  S
C1138      C1139   1.414       .  A
C1139      C1140   1.402       .  A
C1139      N1143   1.429   1_545  S
C1140      H1144   1.081       .  S
N1141      O1151   1.262       .  A
N1141      O1152   1.262       .  A
N1143      O1149   1.262       .  A
N1143      O1150   1.262       .  A
C1153      C1154   1.401   1_545  A
C1153      C1158   1.402       .  A
C1153      H1163   1.082       .  S
C1154      C1159   1.480       .  S
C1154      C1155   1.407       .  A
C1155      C1156   1.399       .  A
C1155      N1160   1.429       .  S
C1156      C1157   1.408   1_565  A
C1156      H1161   1.081       .  S
C1157      C1158   1.414       .  A
C1158      N1162   1.428       .  S
C1159      C1164   1.408       .  A
C1159      C1168   1.402       .  A
N1160      O1175   1.262       .  A
N1160      O1176   1.262       .  A
N1162      O1173   1.262       .  A
N1162      O1174   1.262       .  A
C1164      C1165   1.401   1_565  A
C1164      N1169   1.429       .  S
C1165      C1166   1.406       .  A
C1165      H1170   1.081       .  S
C1166      C1167   1.411   1_545  A
C1167      C1168   1.401       .  A
C1167      N1171   1.428       .  S
C1168      H1172   1.081       .  S
N1169      O1179   1.262   1_565  A
N1169      O1180   1.262       .  A
N1171      O1177   1.262       .  A
N1171      O1178   1.262   1_565  A
C1181      C1182   1.401       .  A
C1181      C1186   1.398       .  A
C1181      H1191   1.081       .  S
C1182      C1187   1.476       .  S
C1182      C1183   1.408   1_565  A
C1183      C1184   1.398       .  A
C1183      N1188   1.429       .  S
C1184      C1185   1.404   1_545  A
C1184      H1189   1.081       .  S
C1185      C1186   1.410       .  A
C1186      N1190   1.428       .  S
C1187      C1192   1.407       .  A
C1187      C1196   1.399   1_565  A
N1188      O1203   1.262       .  A
N1188      O1204   1.262   1_545  A
N1190      O1201   1.262       .  A
N1190      O1202   1.261   1_565  A
C1192      C1193   1.398       .  A
C1192      N1197   1.429       .  S
C1193      C1194   1.406       .  A
C1193      H1198   1.081       .  S
C1194      C1195   1.416   1_565  A
C1195      C1196   1.399       .  A
C1195      N1199   1.429       .  S
C1196      H1200   1.081       .  S
N1197      O1207   1.262       .  A
N1197      O1208   1.262       .  A
N1199      O1205   1.262       .  A
N1199      O1206   1.262       .  A
C1209      C1210   1.403       .  A
C1209      C1214   1.402       .  A
C1209      H1219   1.081       .  S
C1210      C1215   1.483       .  S
C1210      C1211   1.410   1_565  A
C1211      C1212   1.398       .  A
C1211      N1216   1.428       .  S
C1212      C1213   1.402   1_545  A
C1212      H1217   1.082       .  S
C1213      C1214   1.415       .  A
C1214      N1218   1.430       .  S
C1215      C1220   1.411       .  A
C1215      C1224   1.402       .  A
N1216      O1231   1.262       .  A
N1216      O1232   1.261       .  A
N1218      O1229   1.262       .  A
N1218      O1230   1.262       .  A
C1220      C1221   1.401       .  A
C1220      N1225   1.429       .  S
C1221      C1222   1.405       .  A
C1221      H1226   1.081       .  S
C1222      C1223   1.411       .  A
C1223      C1224   1.399       .  A
C1223      N1227   1.429       .  S
C1224      H1228   1.080       .  S
N1225      O1235   1.262       .  A
N1225      O1236   1.262   1_565  A
N1227      O1233   1.262       .  A
N1227      O1234   1.262   1_565  A
C1237      C1238   1.400       .  A
C1237      C1242   1.401       .  A
C1237      H1247   1.082       .  S
C1238      C1243   1.480       .  S
C1238      C1239   1.407   1_565  A
C1239      C1240   1.402       .  A
C1239      N1244   1.428       .  S
C1240      C1241   1.406   1_545  A
C1240      H1245   1.081       .  S
C1241      C1242   1.416       .  A
C1242      N1246   1.430       .  S
C1243      C1248   1.407       .  A
C1243      C1252   1.401   1_565  A
N1244      O1259   1.262       .  A
N1244      O1260   1.261   1_545  A
N1246      O1257   1.262       .  A
N1246      O1258   1.262   1_565  A
C1248      C1249   1.401       .  A
C1248      N1253   1.428       .  S
C1249      C1250   1.406   1_565  A
C1249      H1254   1.082       .  S
C1250      C1251   1.416       .  A
C1251      C1252   1.403       .  A
C1251      N1255   1.429       .  S
C1252      H1256   1.082       .  S
N1253      O1263   1.262       .  A
N1253      O1264   1.262       .  A
N1255      O1261   1.262       .  A
N1255      O1262   1.262       .  A
C1265      C1266   1.399       .  A
C1265      C1270   1.401       .  A
C1265      H1275   1.082       .  S
C1266      C1271   1.475       .  S
C1266      C1267   1.406       .  A
C1267      C1268   1.398       .  A
C1267      N1272   1.429       .  S
C1268      C1269   1.407       .  A
C1268      H1273   1.082       .  S
C1269      C1270   1.416       .  A
C1270      N1274   1.428       .  S
C1271      C1276   1.405       .  A
C1271      C1280   1.401       .  A
N1272      O1287   1.262       .  A
N1272      O1288   1.262       .  A
N1274      O1285   1.262       .  A
N1274      O1286   1.262       .  A
C1276      C1277   1.398       .  A
C1276      N1281   1.429       .  S
C1277      C1278   1.406       .  A
C1277      H1282   1.082       .  S
C1278      C1279   1.413       .  A
C1279      C1280   1.402       .  A
C1279      N1283   1.429       .  S
C1280      H1284   1.082       .  S
N1281      O1291   1.262       .  A
N1281      O1292   1.261       .  A
N1283      O1289   1.262       .  A
N1283      O1290   1.262       .  A
C1293      C1294   1.402       .  A
C1293      C1298   1.403       .  A
C1293      H1303   1.082       .  S
C1294      C1299   1.482       .  S
C1294      C1295   1.407       .  A
C1295      C1296   1.402       .  A
C1295      N1300   1.428       .  S
C1296      C1297   1.406       .  A
C1296      H1301   1.082       .  S
C1297      C1298   1.414       .  A
C1298      N1302   1.429       .  S
C1299      C1304   1.406       .  A
C1299      C1308   1.401       .  A
N1300      O1315   1.262       .  A
N1300      O1316   1.262       .  A
N1302      O1313   1.262       .  A
N1302      O1314   1.262       .  A
C1304      C1305   1.401       .  A
C1304      N1309   1.428       .  S
C1305      C1306   1.408       .  A
C1305      H1310   1.081       .  S
C1306      C1307   1.418       .  A
C1307      C1308   1.405       .  A
C1307      N1311   1.429       .  S
C1308      H1312   1.082       .  S
N1309      O1319   1.262       .  A
N1309      O1320   1.262       .  A
N1311      O1317   1.262       .  A
N1311      O1318   1.262       .  A
C1321      C1322   1.402       .  A
C1321      C1326   1.402       .  A
C1321      H1331   1.081       .  S
C1322      C1327   1.481       .  S
C1322      C1323   1.408       .  A
C1323      C1324   1.400       .  A
C1323      N1328   1.429       .  S
C1324      C1325   1.406       .  A
C1324      H1329   1.082       .  S
C1325      C1326   1.414       .  A
C1326      N1330   1.429       .  S
C1327      C1332   1.408       .  A
C1327      C1336   1.404       .  A
N1328      O1343   1.262       .  A
N1328      O1344   1.262       .  A
N1330      O1341   1.261       .  A
N1330      O1342   1.262       .  A
C1332      C1333   1.397       .  A
C1332      N1337   1.429       .  S
C1333      C1334   1.405       .  A
C1333      H1338   1.081       .  S
C1334      C1335   1.412       .  A
C1335      C1336   1.403       .  A
C1335      N1339   1.429       .  S
C1336      H1340   1.080       .  S
N1337      O1347   1.262       .  A
N1337      O1348   1.262       .  A
N1339      O1345   1.262       .  A
N1339      O1346   1.262       .  A
C1349      C1350   1.403       .  A
C1349      C1354   1.400       .  A
C1349      H1359   1.081       .  S
C1350      C1355   1.481       .  S
C1350      C1351   1.408       .  A
C1351      C1352   1.397       .  A
C1351      N1356   1.429       .  S
C1352      C1353   1.404       .  A
C1352      H1357   1.081       .  S
C1353      C1354   1.413       .  A
C1354      N1358   1.429       .  S
C1355      C1360   1.409       .  A
C1355      C1364   1.404       .  A
N1356      O1371   1.262       .  A
N1356      O1372   1.262       .  A
N1358      O1369   1.262       .  A
N1358      O1370   1.262       .  A
C1360      C1361   1.397       .  A
C1360      N1365   1.429       .  S
C1361      C1362   1.402       .  A
C1361      H1366   1.081       .  S
C1362      C1363   1.410       .  A
C1363      C1364   1.401       .  A
C1363      N1367   1.429       .  S
C1364      H1368   1.080       .  S
N1365      O1375   1.262       .  A
N1365      O1376   1.262       .  A
N1367      O1373   1.262       .  A
N1367      O1374   1.261       .  A
C1377      C1378   1.405       .  A
C1377      C1382   1.400       .  A
C1377      H1387   1.079       .  S
C1378      C1383   1.487       .  S
C1378      C1379   1.414       .  A
C1379      C1380   1.399       .  A
C1379      N1384   1.429       .  S
C1380      C1381   1.399       .  A
C1380      H1385   1.081       .  S
C1381      C1382   1.409       .  A
C1382      N1386   1.430       .  S
C1383      C1388   1.411       .  A
C1383      C1392   1.404       .  A
N1384      O1399   1.262       .  A
N1384      O1400   1.262       .  A
N1386      O1397   1.262       .  A
N1386      O1398   1.262       .  A
C1388      C1389   1.398       .  A
C1388      N1393   1.429       .  S
C1389      C1390   1.405       .  A
C1389      H1394   1.081       .  S
C1390      C1391   1.416       .  A
C1391      C1392   1.401       .  A
C1391      N1395   1.430       .  S
C1392      H1396   1.079       .  S
N1393      O1403   1.262       .  A
N1393      O1404   1.262       .  A
N1395      O1401   1.262       .  A
N1395      O1402   1.262       .  A
C1405      C1406   1.403       .  A
C1405      C1410   1.399       .  A
C1405      H1415   1.079       .  S
C1406      C1411   1.489       .  S
C1406      C1407   1.414       .  A
C1407      C1408   1.402       .  A
C1407      N1412   1.429       .  S
C1408      C1409   1.402       .  A
C1408      H1413   1.080       .  S
C1409      C1410   1.408       .  A
C1410      N1414   1.427       .  S
C1411      C1416   1.411       .  A
C1411      C1420   1.402       .  A
N1412      O1427   1.262       .  A
N1412      O1428   1.262       .  A
N1414      O1425   1.261       .  A
N1414      O1426   1.262       .  A
C1416      C1417   1.400       .  A
C1416      N1421   1.429       .  S
C1417      C1418   1.407       .  A
C1417      H1422   1.081       .  S
C1418      C1419   1.419       .  A
C1419      C1420   1.402       .  A
C1419      N1423   1.430       .  S
C1420      H1424   1.080       .  S
N1421      O1431   1.262       .  A
N1421      O1432   1.262       .  A
N1423      O1429   1.262       .  A
N1423      O1430   1.262       .  A
C1433      C1434   1.401       .  A
C1433      C1438   1.400       .  A
C1433      H1443   1.081       .  S
C1434      C1439   1.477       .  S
C1434      C1435   1.406       .  A
C1435      C1436   1.398       .  A
C1435      N1440   1.428       .  S
C1436      C1437   1.407       .  A
C1436      H1441   1.081       .  S
C1437      C1438   1.417       .  A
C1438      N1442   1.429       .  S
C1439      C1444   1.409       .  A
C1439      C1448   1.404       .  A
N1440      O1455   1.262       .  A
N1440      O1456   1.262       .  A
N1442      O1453   1.262       .  A
N1442      O1454   1.262       .  A
C1444      C1445   1.395       .  A
C1444      N1449   1.428       .  S
C1445      C1446   1.399       .  A
C1445      H1450   1.081       .  S
C1446      C1447   1.410       .  A
C1447      C1448   1.402       .  A
C1447      N1451   1.429       .  S
C1448      H1452   1.080       .  S
N1449      O1459   1.262       .  A
N1449      O1460   1.262       .  A
N1451      O1457   1.262       .  A
N1451      O1458   1.262       .  A
C1461      C1462   1.402       .  A
C1461      C1466   1.405       .  A
C1461      H1471   1.082       .  S
C1462      C1467   1.477       .  S
C1462      C1463   1.404       .  A
C1463      C1464   1.397       .  A
C1463      N1468   1.429       .  S
C1464      C1465   1.408       .  A
C1464      H1469   1.082       .  S
C1465      C1466   1.416       .  A
C1466      N1470   1.429       .  S
C1467      C1472   1.407       .  A
C1467      C1476   1.401       .  A
N1468      O1483   1.262       .  A
N1468      O1484   1.261       .  A
N1470      O1481   1.262       .  A
N1470      O1482   1.262       .  A
C1472      C1473   1.400       .  A
C1472      N1477   1.428       .  S
C1473      C1474   1.404       .  A
C1473      H1478   1.081       .  S
C1474      C1475   1.413       .  A
C1475      C1476   1.402       .  A
C1475      N1479   1.429       .  S
C1476      H1480   1.081       .  S
N1477      O1487   1.262       .  A
N1477      O1488   1.261       .  A
N1479      O1485   1.262       .  A
N1479      O1486   1.262       .  A
C1489      C1490   1.400       .  A
C1489      C1494   1.401       .  A
C1489      H1499   1.082       .  S
C1490      C1495   1.472       .  S
C1490      C1491   1.403       .  A
C1491      C1492   1.396       .  A
C1491      N1496   1.429       .  S
C1492      C1493   1.407       .  A
C1492      H1497   1.081       .  S
C1493      C1494   1.417       .  A
C1494      N1498   1.429       .  S
C1495      C1500   1.404       .  A
C1495      C1504   1.401       .  A
N1496      O1511   1.262       .  A
N1496      O1512   1.262       .  A
N1498      O1509   1.262       .  A
N1498      O1510   1.262       .  A
C1500      C1501   1.397       .  A
C1500      N1505   1.429       .  S
C1501      C1502   1.406       .  A
C1501      H1506   1.082       .  S
C1502      C1503   1.413       .  A
C1503      C1504   1.401       .  A
C1503      N1507   1.429       .  S
C1504      H1508   1.082       .  S
N1505      O1515   1.262       .  A
N1505      O1516   1.262       .  A
N1507      O1513   1.262   1_565  A
N1507      O1514   1.262   1_565  A
C1517      C1518   1.404       .  A
C1517      C1522   1.401       .  A
C1517      H1527   1.080       .  S
C1518      C1523   1.486       .  S
C1518      C1519   1.411       .  A
C1519      C1520   1.399       .  A
C1519      N1524   1.430       .  S
C1520      C1521   1.406       .  A
C1520      H1525   1.081       .  S
C1521      C1522   1.412       .  A
C1522      N1526   1.428       .  S
C1523      C1528   1.411       .  A
C1523      C1532   1.403       .  A
N1524      O1539   1.262       .  A
N1524      O1540   1.262       .  A
N1526      O1537   1.262       .  A
N1526      O1538   1.262       .  A
C1528      C1529   1.400       .  A
C1528      N1533   1.429       .  S
C1529      C1530   1.405       .  A
C1529      H1534   1.081       .  S
C1530      C1531   1.413       .  A
C1531      C1532   1.400       .  A
C1531      N1535   1.429       .  S
C1532      H1536   1.079       .  S
N1533      O1543   1.262       .  A
N1533      O1544   1.262       .  A
N1535      O1541   1.262       .  A
N1535      O1542   1.262       .  A
C1545      C1546   1.408       .  A
C1545      C1550   1.405       .  A
C1545      H1555   1.078       .  S
C1546      C1551   1.499       .  S
C1546      C1547   1.416       .  A
C1547      C1548   1.403       .  A
C1547      N1552   1.429       .  S
C1548      C1549   1.402       .  A
C1548      H1553   1.080       .  S
C1549      C1550   1.410       .  A
C1550      N1554   1.429       .  S
C1551      C1556   1.414       .  A
C1551      C1560   1.407       .  A
N1552      O1567   1.262       .  A
N1552      O1568   1.262       .  A
N1554      O1565   1.262       .  A
N1554      O1566   1.262       .  A
C1556      C1557   1.402       .  A
C1556      N1561   1.429       .  S
C1557      C1558   1.406       .  A
C1557      H1562   1.081       .  S
C1558      C1559   1.414       .  A
C1559      C1560   1.405       .  A
C1559      N1563   1.429       .  S
C1560      H1564   1.079       .  S
N1561      O1571   1.262       .  A
N1561      O1572   1.262       .  A
N1563      O1569   1.262       .  A
N1563      O1570   1.262       .  A
C1573      C1574   1.406       .  A
C1573      C1578   1.402       .  A
C1573      H1583   1.079       .  S
C1574      C1579   1.490       .  S
C1574      C1575   1.413       .  A
C1575      C1576   1.400       .  A
C1575      N1580   1.429       .  S
C1576      C1577   1.401       .  A
C1576      H1581   1.081       .  S
C1577      C1578   1.409       .  A
C1578      N1582   1.429       .  S
C1579      C1584   1.412       .  A
C1579      C1588   1.405       .  A
N1580      O1595   1.262       .  A
N1580      O1596   1.262       .  A
N1582      O1593   1.262       .  A
N1582      O1594   1.262       .  A
C1584      C1585   1.399       .  A
C1584      N1589   1.429       .  S
C1585      C1586   1.404       .  A
C1585      H1590   1.081       .  S
C1586      C1587   1.414       .  A
C1587      C1588   1.403       .  A
C1587      N1591   1.430       .  S
C1588      H1592   1.080       .  S
N1589      O1599   1.262       .  A
N1589      O1600   1.262       .  A
N1591      O1597   1.262       .  A
N1591      O1598   1.262       .  A
C1601      C1602   1.403       .  A
C1601      C1606   1.402       .  A
C1601      H1611   1.078       .  S
C1602      C1607   1.485       .  S
C1602      C1603   1.411       .  A
C1603      C1604   1.397       .  A
C1603      N1608   1.429       .  S
C1604      C1605   1.402       .  A
C1604      H1609   1.080       .  S
C1605      C1606   1.414       .  A
C1606      N1610   1.430       .  S
C1607      C1612   1.412       .  A
C1607      C1616   1.403       .  A
N1608      O1623   1.262       .  A
N1608      O1624   1.262       .  A
N1610      O1621   1.262       .  A
N1610      O1622   1.262       .  A
C1612      C1613   1.401       .  A
C1612      N1617   1.429       .  S
C1613      C1614   1.402       .  A
C1613      H1618   1.081       .  S
C1614      C1615   1.410       .  A
C1615      C1616   1.398       .  A
C1615      N1619   1.429       .  S
C1616      H1620   1.080       .  S
N1617      O1627   1.262       .  A
N1617      O1628   1.262       .  A
N1619      O1625   1.262       .  A
N1619      O1626   1.262       .  A
C1629      C1630   1.404       .  A
C1629      C1634   1.399       .  A
C1629      H1639   1.080       .  S
C1630      C1635   1.484       .  S
C1630      C1631   1.411       .  A
C1631      C1632   1.398       .  A
C1631      N1636   1.429       .  S
C1632      C1633   1.402       .  A
C1632      H1637   1.081       .  S
C1633      C1634   1.411       .  A
C1634      N1638   1.430       .  S
C1635      C1640   1.411       .  A
C1635      C1644   1.403       .  A
N1636      O1651   1.262       .  A
N1636      O1652   1.262       .  A
N1638      O1649   1.262       .  A
N1638      O1650   1.262       .  A
C1640      C1641   1.399       .  A
C1640      N1645   1.430       .  S
C1641      C1642   1.405       .  A
C1641      H1646   1.081       .  S
C1642      C1643   1.411       .  A
C1643      C1644   1.400       .  A
C1643      N1647   1.429       .  S
C1644      H1648   1.079       .  S
N1645      O1655   1.262       .  A
N1645      O1656   1.262       .  A
N1647      O1653   1.262       .  A
N1647      O1654   1.262       .  A
