geometry optimzed in LAMMPS
_audit_creation_date              2020-11-30 
_audit_creation_method            'lammps2cif' 
_symmetry_space_group_name_H-M    'P1' 
_symmetry_Int_Tables_number       1 
_symmetry_cell_setting            triclinic 
loop_ 
_symmetry_equiv_pos_as_xyz 
  x,y,z 
_cell_length_a                    38.2782162 
_cell_length_b                    38.710692275931635 
_cell_length_c                    38.84125242397239 
_cell_angle_alpha                 90.4791024779247 
_cell_angle_beta                  92.85956797788539 
_cell_angle_gamma                 88.40518052734602 
loop_ 
_atom_site_label 
_atom_site_type_symbol 
_atom_site_fract_x 
_atom_site_fract_y 
_atom_site_fract_z 
_atom_site_charge 
O1          O  0.50130926  0.55544158  0.63329455    -0.81100
O2          O  0.58607159  0.65794548  0.57155175    -0.65800
O3          O  0.53958274  0.57421366  0.58157737    -1.12400
C4          C  0.64747150  0.54332200  0.63936328     1.05700
O5          O  0.62570862  0.62665062  0.54496702    -0.79000
O6          O  0.62819251  0.55378349  0.54907836    -0.66600
Ni7        Ni  0.49122148  0.57769158  0.59047162     1.34900
C8          C  0.61467954  0.52546066  0.55744843     0.84500
O9          O  0.52401909  0.63726140  0.54659784    -0.79600
O10         O  0.48056350  0.59988875  0.54622398    -0.89900
C11         C  0.61161289  0.65608421  0.55221649     0.84100
O12         O  0.48928900  0.62026593  0.61686789    -0.68100
O13         O  0.65814399  0.55984715  0.61363989    -0.87300
C14         C  0.51462288  0.63533223  0.63260345     0.84900
C15         C  0.49688489  0.62392267  0.53200261     1.06400
H16         H  0.60337028  0.60923319  0.62362804     0.38300
O17         O  0.59845634  0.59588166  0.60292393    -1.10000
O18         O  0.59330123  0.52410979  0.58140733    -0.66700
Ni19       Ni  0.57469830  0.55563862  0.61498895     1.26300
O20         O  0.54436921  0.63578047  0.61934811    -0.66900
O21         O  0.61459550  0.54014592  0.64540019    -0.79200
C22         C  0.51307772  0.52460244  0.63485338     0.84300
O23         O  0.54512207  0.51789538  0.62827714    -0.66400
Ni24       Ni  0.64027783  0.59191431  0.57940926     1.27400
Ni25       Ni  0.56116631  0.61700412  0.57630999     1.26100
H26         H  0.54141899  0.56145154  0.56023581     0.38800
O27         O  0.86374200  0.48879778  0.43241697    -0.81100
O28         O  0.91635672  0.58603442  0.33342844    -0.65800
O29         O  0.91174525  0.53641417  0.41667445    -1.12400
C30         C  0.84587993  0.63480082  0.44796869     1.05700
O31         O  0.93840056  0.62953623  0.36371542    -0.79000
O32         O  0.93929415  0.62103011  0.43650514    -0.66600
Ni33       Ni  0.90843130  0.48755494  0.41252485     1.34900
C34         C  0.93183873  0.60803366  0.46533216     0.84500
O35         O  0.94779993  0.52731197  0.35463100    -0.79600
O36         O  0.95409178  0.48434148  0.39252246    -0.89900
C37         C  0.93181182  0.61442657  0.33462315     0.84100
O38         O  0.88281179  0.48444633  0.36858384    -0.68100
O39         O  0.87251869  0.64808733  0.43507125    -0.87300
C40         C  0.86344483  0.50816201  0.35465163     0.84900
C41         C  0.96574741  0.50223921  0.36829165     1.06400
H42         H  0.86379656  0.59648961  0.38013424     0.38300
O43         O  0.88494986  0.59305753  0.39449344    -1.10000
O44         O  0.90690299  0.58705841  0.46730510    -0.66700
Ni45       Ni  0.87453684  0.56625095  0.43347427     1.26300
O46         O  0.87343257  0.53914692  0.35482567    -0.66900
O47         O  0.84032907  0.60179125  0.44754625    -0.79200
C48         C  0.85646178  0.50106690  0.46166668     0.84300
O49         O  0.86187312  0.53319222  0.46894203    -0.66400
Ni50       Ni  0.90558708  0.63635339  0.40086847     1.27400
Ni51       Ni  0.91504694  0.56000674  0.37434994     1.26100
H52         H  0.93291927  0.54056740  0.43046057     0.38800
O53         O  0.85138807  0.46929476  0.08207365    -0.81100
O54         O  0.92157161  0.37719533  0.17989206    -0.65800
O55         O  0.90761621  0.42944440  0.09843776    -1.12400
C56         C  0.85656969  0.32605664  0.05958481     1.05700
O57         O  0.95083213  0.33862964  0.14972912    -0.79000
O58         O  0.94806015  0.34818878  0.07664836    -0.66600
Ni59       Ni  0.89547004  0.47699131  0.10482488     1.34900
C60         C  0.93756181  0.36208930  0.04806631     0.84500
O61         O  0.94220314  0.43969911  0.16378106    -0.79600
O62         O  0.94069013  0.48474392  0.12817302    -0.89900
C63         C  0.94225849  0.35131165  0.17895669     0.84100
O64         O  0.87081203  0.47537340  0.14689309    -0.68100
O65         O  0.88574141  0.31499863  0.07358816    -0.87300
C66         C  0.85585808  0.44896706  0.15776120     0.84900
C67         C  0.95595998  0.46660589  0.15214878     1.06400
H68         H  0.87046495  0.36327370  0.12820402     0.38300
O69         O  0.89065274  0.36958236  0.11589035    -1.10000
O70         O  0.90979055  0.38096519  0.04551094    -0.66700
Ni71       Ni  0.87523001  0.39679558  0.07705874     1.26300
O72         O  0.87080842  0.41945921  0.15635760    -0.66900
O73         O  0.84667257  0.35853906  0.05892975    -0.79200
C74         C  0.84865097  0.46101498  0.05055538     0.84300
O75         O  0.85761117  0.43003680  0.04135967    -0.66400
Ni76       Ni  0.91818090  0.32917585  0.11006097     1.27400
Ni77       Ni  0.91528603  0.40454670  0.13994219     1.26100
H78         H  0.92911241  0.42843919  0.08634464     0.38800
C79         C  0.73252935  0.62780467  0.00106645     0.80000
N80         N  0.76216119  0.60671643  0.00252285    -0.78300
C81         C  0.75969998  0.57142954  0.00092497     0.82400
N82         N  0.72775919  0.55774185  0.99834862    -0.78300
C83         C  0.69814271  0.57726667  0.99682562     0.82500
N84         N  0.70024002  0.61269731  0.99786241    -0.80000
C85         C  0.08827065  0.48555096  0.29170574     0.80000
N86         N  0.06924123  0.48576808  0.26170933    -0.78300
C87         C  0.08400380  0.48673775  0.23106781     0.82400
N88         N  0.11984491  0.48739258  0.23005929    -0.78300
C89         C  0.14037217  0.48734880  0.26032951     0.82500
N90         N  0.12410154  0.48657606  0.29128335    -0.80000
O91         O  0.51691793  0.42765189  0.86065936    -0.81100
O92         O  0.60487422  0.32836215  0.92701390    -0.65800
O93         O  0.55363618  0.41170738  0.91671534    -1.12400
C94         C  0.66001729  0.44518006  0.87465579     1.05700
O95         O  0.64044410  0.35753473  0.96228002    -0.79000
O96         O  0.63486857  0.43289406  0.96237188    -0.66600
Ni97       Ni  0.50604689  0.40721069  0.90259513     1.34900
C98         C  0.62130244  0.46164445  0.95133416     0.84500
O99         O  0.54036761  0.34609852  0.94290130    -0.79600
O100        O  0.49722212  0.38559171  0.94599374    -0.89900
C101        C  0.62876605  0.32847934  0.95055165     0.84100
O102        O  0.50732742  0.36371567  0.87839111    -0.68100
O103        O  0.67026571  0.43112508  0.90335606    -0.87300
C104        C  0.53309410  0.35228532  0.86195461     0.84900
C105        C  0.51472592  0.35958644  0.95848517     1.06400
H106        H  0.62206075  0.37951103  0.88216536     0.38300
O107        O  0.61448749  0.39201486  0.90225434    -1.10000
O108        O  0.60252591  0.46322674  0.92347269    -0.66700
Ni109      Ni  0.58765228  0.43158078  0.88768423     1.26300
O110        O  0.56386212  0.35412159  0.87546248    -0.66900
O111        O  0.62752282  0.44761325  0.86302844    -0.79200
C112        C  0.52357629  0.45934335  0.86110801     0.84300
O113        O  0.55465557  0.46843867  0.87075585    -0.66400
Ni114      Ni  0.65351890  0.39633480  0.93303042     1.27400
Ni115      Ni  0.57774135  0.36904781  0.92175774     1.26100
H116        H  0.55453661  0.42340655  0.93878333     0.38800
O117        O  0.46876240  0.07049272  0.86169580    -0.81100
O118        O  0.37446870  0.17255292  0.91766214    -0.65800
O119        O  0.42975586  0.09066294  0.91277392    -1.12400
C120        C  0.32628450  0.05140121  0.85754357     1.05700
O121        O  0.33874250  0.14156308  0.94675919    -0.79000
O122        O  0.34319924  0.06884650  0.94657887    -0.66600
Ni123      Ni  0.47739029  0.09560849  0.90293830     1.34900
C124        C  0.35993453  0.04062171  0.94067017     0.84500
O125        O  0.43879237  0.15676079  0.94177122    -0.79600
O126        O  0.48532673  0.12056599  0.94566241    -0.89900
C127        C  0.35083208  0.17096806  0.93910326     0.84100
O128        O  0.47493455  0.13674514  0.87502538    -0.68100
O129        O  0.31316377  0.06918028  0.88189561    -0.87300
C130        C  0.44832472  0.14971775  0.85840884     0.84900
C131        C  0.46616625  0.14470896  0.95798397     1.06400
H132        H  0.36259631  0.11917371  0.86864794     0.38300
O133        O  0.36885050  0.10782040  0.89024870    -1.10000
O134        O  0.38149149  0.03806711  0.91679993    -0.66700
Ni135      Ni  0.39706988  0.06787377  0.88112853     1.26300
O136        O  0.41820879  0.14881104  0.87077116    -0.66900
O137        O  0.35938322  0.04894676  0.85182044    -0.79200
C138        C  0.46222427  0.03885336  0.86410811     0.84300
O139        O  0.43104833  0.03051726  0.87092031    -0.66400
Ni140      Ni  0.32760817  0.10417400  0.91416930     1.27400
Ni141      Ni  0.40362738  0.13261545  0.91491962     1.26100
H142        H  0.42931543  0.07964609  0.93499009     0.38800
C143        C  0.48712896  0.22100576  0.08073675     0.80000
N144        N  0.49283831  0.22111652  0.11577849    -0.78300
C145        C  0.49718003  0.25195923  0.13291228     0.82400
N146        N  0.49706380  0.28205391  0.11424947    -0.78300
C147        C  0.49099281  0.28136071  0.07927004     0.82500
N148        N  0.48608632  0.25091776  0.06332392    -0.80000
C149        C  0.47673651  0.22309527  0.73503366     0.80000
N150        N  0.48710195  0.25129895  0.75265268    -0.78300
C151        C  0.49849410  0.27925904  0.73690449     0.82400
N152        N  0.49944396  0.27952636  0.70176444    -0.78300
C153        C  0.48910646  0.25119137  0.68261758     0.82500
N154        N  0.47784047  0.22258957  0.69962931    -0.80000
C155        C  0.62590861  0.98485906  0.76819967     0.80000
N156        N  0.60986921  0.98304728  0.79918064    -0.78300
C157        C  0.57400349  0.98229592  0.79946521     0.82400
N158        N  0.55514724  0.98415413  0.76943287    -0.78300
C159        C  0.56961348  0.98701641  0.73892506     0.82500
N160        N  0.60535933  0.98683018  0.73811607    -0.80000
C161        C  0.91978194  0.00293386  0.22784603     0.80000
N162        N  0.88389255  0.00385874  0.22676918    -0.78300
C163        C  0.86624597  0.99567752  0.25557418     0.82400
N164        N  0.88532534  0.98632130  0.28525266    -0.78300
C165        C  0.92128133  0.98548722  0.28595624     0.82500
N166        N  0.93755738  0.99394152  0.25732815    -0.80000
C167        C  0.24457844  0.33916401  0.99878217     0.80000
N168        N  0.27478671  0.32161246  0.99032248    -0.78300
C169        C  0.27665072  0.28633691  0.99196208     0.82400
N170        N  0.24863814  0.26927165  0.00131532    -0.78300
C171        C  0.21898177  0.28536239  0.00998925     0.82500
N172        N  0.21667096  0.32075142  0.00916814    -0.80000
C173        C  0.25153156  0.87635445  0.98598012     0.80000
N174        N  0.28320568  0.89221973  0.98382427    -0.78300
C175        C  0.28453232  0.92762107  0.98439384     0.82400
N176        N  0.25464118  0.94637791  0.98687542    -0.78300
C177        C  0.22323539  0.93221415  0.98921566     0.82500
N178        N  0.22154643  0.89674549  0.98888178    -0.80000
C179        C  0.32919415  0.99667475  0.24803717     0.80000
N180        N  0.31423047  0.98263429  0.27600752    -0.78300
C181        C  0.27870306  0.98453611  0.27867790     0.82400
N182        N  0.25863666  0.00057827  0.25388717    -0.78300
C183        C  0.27237582  0.01439669  0.22608068     0.82500
N184        N  0.30785766  0.01205387  0.22261576    -0.80000
C185        C  0.99057441  0.25532708  0.87983427     0.80000
N186        N  0.98321542  0.28534364  0.89778960    -0.78300
C187        C  0.98339209  0.28516509  0.93312479     0.82400
N188        N  0.99086525  0.25535429  0.94992354    -0.78300
C189        C  0.99865954  0.22563096  0.93348635     0.82500
N190        N  0.99866027  0.22543488  0.89807798    -0.80000
C191        C  0.00123830  0.24755258  0.35215503     0.80000
N192        N  0.01299316  0.21873527  0.33476808    -0.78300
C193        C  0.01545618  0.21974415  0.29983105     0.82400
N194        N  0.00610421  0.24884597  0.28284447    -0.78300
C195        C  0.99408890  0.27732263  0.29883193     0.82500
N196        N  0.99140458  0.27692733  0.33387340    -0.80000
O197        O  0.13684622  0.02998440  0.07929856    -0.81100
O198        O  0.08008313  0.12302743  0.18124831    -0.65800
O199        O  0.08510551  0.07379145  0.09730118    -1.12400
C200        C  0.14111234  0.17540808  0.06668304     1.05700
O201        O  0.05020205  0.16344789  0.15174433    -0.79000
O202        O  0.05042426  0.16226244  0.07782400    -0.66600
Ni203      Ni  0.09376693  0.02539717  0.10095806     1.34900
C204        C  0.05746872  0.14770489  0.04915719     0.84500
O205        O  0.05503343  0.06246228  0.16180076    -0.79600
O206        O  0.04972885  0.01997068  0.12315621    -0.89900
C207        C  0.05968860  0.14920197  0.18066403     0.84100
O208        O  0.12177991  0.02358498  0.14368553    -0.68100
O209        O  0.11585333  0.18828709  0.08353207    -0.87300
C210        C  0.13993186  0.04793530  0.15660902     0.84900
C211        C  0.03830929  0.03697124  0.14884912     1.06400
H212        H  0.12890274  0.13533890  0.13178375     0.38300
O213        O  0.10724349  0.13128989  0.11869889    -1.10000
O214        O  0.08230246  0.12521535  0.04690878    -0.66700
Ni215      Ni  0.11802086  0.10523051  0.07854949     1.26300
O216        O  0.12729278  0.07857843  0.15722610    -0.66900
O217        O  0.14757156  0.14235840  0.06308610    -0.79200
C218        C  0.13918426  0.04040234  0.04873717     0.84300
O219        O  0.13129495  0.07235945  0.04150508    -0.66400
Ni220      Ni  0.08286519  0.17403869  0.11578128     1.27400
Ni221      Ni  0.08225703  0.09694051  0.14023852     1.26100
H222        H  0.06279726  0.07699539  0.08482810     0.38800
O223        O  0.32917221  0.94224695  0.59825592    -0.81100
O224        O  0.42827149  0.87514143  0.51199312    -0.65800
O225        O  0.37137179  0.88758060  0.58793855    -1.12400
C226        C  0.47017067  0.94211534  0.63505984     1.05700
O227        O  0.46818396  0.84962346  0.54669263    -0.79000
O228        O  0.45533565  0.85143013  0.61745292    -0.66600
Ni229      Ni  0.32338697  0.89817358  0.57782788     1.34900
C230        C  0.43793731  0.85948101  0.64367696     0.84500
O231        O  0.36444138  0.85273147  0.52440624    -0.79600
O232        O  0.31902852  0.85271408  0.55836989    -0.89900
C233        C  0.45492094  0.85529537  0.51619998     0.84100
O234        O  0.32603403  0.91995146  0.53369338    -0.68100
O235        O  0.48378499  0.91500872  0.62153631    -0.87300
C236        C  0.35184772  0.93736170  0.52537584     0.84900
C237        C  0.33906440  0.83734860  0.53742177     1.06400
H238        H  0.43735052  0.92771665  0.56246172     0.38300
O239        O  0.43164163  0.90725428  0.57483548    -1.10000
O240        O  0.41730299  0.88579628  0.64427670    -0.66700
Ni241      Ni  0.40154970  0.92036510  0.61090763     1.26300
O242        O  0.38269988  0.92494530  0.52925304    -0.66900
O243        O  0.43703767  0.95010962  0.63210182    -0.79200
C244        C  0.33458495  0.94276713  0.63052001     0.84300
O245        O  0.36548184  0.93451147  0.64298578    -0.66400
Ni246      Ni  0.47375635  0.88263293  0.58508587     1.27400
Ni247      Ni  0.39852468  0.88115386  0.54903971     1.26100
H248        H  0.37258031  0.86653852  0.60071130     0.38800
O249        O  0.07747544  0.84697808  0.47714207    -0.81100
O250        O  0.17416611  0.90722879  0.38180776    -0.65800
O251        O  0.09346175  0.89894158  0.43427180    -1.12400
C252        C  0.05122030  0.84259900  0.33341152     1.05700
O253        O  0.14022273  0.93302644  0.34149067    -0.79000
O254        O  0.06688418  0.93305658  0.34802257    -0.66600
Ni255      Ni  0.10106213  0.88966295  0.48217323     1.34900
C256        C  0.03900826  0.92608512  0.36304897     0.84500
O257        O  0.15869110  0.93184492  0.44399868    -0.79600
O258        O  0.12430733  0.93355876  0.48876450    -0.89900
C259        C  0.17079163  0.92550680  0.35485738     0.84100
O260        O  0.14389629  0.86190024  0.48156151    -0.68100
O261        O  0.06667044  0.86801241  0.32044617    -0.87300
C262        C  0.15579113  0.84537887  0.45596008     0.84900
C263        C  0.14704696  0.94727120  0.47050031     1.06400
H264        H  0.12283158  0.85611847  0.37063828     0.38300
O265        O  0.10995838  0.87734350  0.37547216    -1.10000
O266        O  0.03802322  0.90122454  0.38437617    -0.66700
Ni267      Ni  0.07149784  0.86629570  0.40255006     1.26300
O268        O  0.15450503  0.85923746  0.42629435    -0.66900
O269        O  0.05237213  0.83623798  0.36617300    -0.79200
C270        C  0.04575615  0.84457763  0.46663146     0.84300
O271        O  0.03644022  0.85306111  0.43537526    -0.66400
Ni272      Ni  0.10221132  0.90044009  0.33315494     1.27400
Ni273      Ni  0.13478666  0.90326731  0.40960369     1.26100
H274        H  0.08048355  0.92065303  0.43246865     0.38800
C275        C  0.98644661  0.73182510  0.62347100     0.80000
N276        N  0.98858728  0.76073216  0.60293987    -0.78300
C277        C  0.98633567  0.75773499  0.56749767     0.82400
N278        N  0.98262419  0.72606370  0.55363449    -0.78300
C279        C  0.98086830  0.69727278  0.57254105     0.82500
N280        N  0.98257717  0.69998613  0.60779012    -0.80000
C281        C  0.22505067  0.06899743  0.49804771     0.80000
N282        N  0.22533385  0.10449529  0.50035727    -0.78300
C283        C  0.25676600  0.12132720  0.50323588     0.82400
N284        N  0.28752120  0.10175383  0.50376973    -0.78300
C285        C  0.28665394  0.06638321  0.50115271     0.82500
N286        N  0.25557663  0.05101196  0.49844069    -0.80000
C287        C  0.22616747  0.71313141  0.48180207     0.80000
N288        N  0.25661587  0.72779072  0.49081961    -0.78300
C289        C  0.28463179  0.70945004  0.50312048     0.82400
N290        N  0.28265116  0.67450246  0.50638106    -0.78300
C291        C  0.25229066  0.65804866  0.49663537     0.82500
N292        N  0.22343231  0.67780931  0.48489304    -0.80000
C293        C  0.97922437  0.72679475  0.17139815     0.80000
N294        N  0.98948651  0.75350075  0.19291985    -0.78300
C295        C  0.99195606  0.74914918  0.22801482     0.82400
N296        N  0.98423521  0.71833342  0.24081074    -0.78300
C297        C  0.97378194  0.69176766  0.22087914     0.82500
N298        N  0.97104867  0.69572491  0.18577175    -0.80000
C299        C  0.16365185  0.98092151  0.74144439     0.80000
N300        N  0.18212266  0.99714400  0.76783424    -0.78300
C301        C  0.21764786  0.99846201  0.76758273     0.82400
N302        N  0.23449052  0.98264061  0.74229005    -0.78300
C303        C  0.21766079  0.96610167  0.71630535     0.82500
N304        N  0.18165553  0.96571389  0.71500715    -0.80000
C305        C  0.74102998  0.15902605  0.00621805     0.80000
N306        N  0.77070374  0.17785378  0.01363332    -0.78300
C307        C  0.76895198  0.21338444  0.01174347     0.82400
N308        N  0.73813929  0.22914395  0.00331689    -0.78300
C309        C  0.70867474  0.21174341  0.99702669     0.82500
N310        N  0.70989186  0.17646160  0.99812101    -0.80000
C311        C  0.48247273  0.74211714  0.81178959     0.80000
N312        N  0.47295968  0.77199308  0.79448638    -0.78300
C313        C  0.47070759  0.77204412  0.75920234     0.82400
N314        N  0.47823163  0.74296148  0.74156993    -0.78300
C315        C  0.48799063  0.71332941  0.75741521     0.82500
N316        N  0.49010112  0.71259405  0.79286398    -0.80000
C317        C  0.47567383  0.72895032  0.35386203     0.80000
N318        N  0.47809338  0.75969966  0.37154590    -0.78300
C319        C  0.47799674  0.76025209  0.40669730     0.82400
N320        N  0.47497737  0.73046048  0.42380831    -0.78300
C321        C  0.47254113  0.69977196  0.40757374     0.82500
N322        N  0.47321069  0.69869332  0.37219759    -0.80000
C323        C  0.73361061  0.80660850  0.50195448     0.80000
N324        N  0.70136565  0.79449003  0.50856945    -0.78300
C325        C  0.69492952  0.76024503  0.50521301     0.82400
N326        N  0.72040402  0.73839243  0.49529820    -0.78300
C327        C  0.75252761  0.74891199  0.48856822     0.82500
N328        N  0.75952079  0.78357523  0.49201208    -0.80000
C329        C  0.35771838  0.48848955  0.74561038     0.80000
N330        N  0.37516986  0.49593750  0.77643505    -0.78300
C331        C  0.41082035  0.49787137  0.77813801     0.82400
N332        N  0.42842625  0.49125967  0.74963179    -0.78300
C333        C  0.41242566  0.48278805  0.71926339     0.82500
N334        N  0.37663102  0.48207278  0.71686113    -0.80000
C335        C  0.81939595  0.48499021  0.75707380     0.80000
N336        N  0.79797534  0.49237329  0.72839111    -0.78300
C337        C  0.76240025  0.49475822  0.73103095     0.82400
N338        N  0.74892252  0.49071843  0.76191490    -0.78300
C339        C  0.76916450  0.48391390  0.79037354     0.82500
N340        N  0.80459321  0.48030183  0.78812936    -0.80000
C341        C  0.73162080  0.35403810  0.52341333     0.80000
N342        N  0.76188440  0.37239453  0.52119332    -0.78300
C343        C  0.76060659  0.40799702  0.52077607     0.82400
N344        N  0.72925376  0.42436041  0.52204436    -0.78300
C345        C  0.69918622  0.40757117  0.52430714     0.82500
N346        N  0.70012702  0.37209425  0.52496043    -0.80000
C347        C  0.72800296  0.46726865  0.22325033     0.80000
N348        N  0.69215348  0.46968329  0.22326103    -0.78300
C349        C  0.67613667  0.47785464  0.25346753     0.82400
N350        N  0.69676497  0.48412648  0.28289275    -0.78300
C351        C  0.73249039  0.48161164  0.28198658     0.82500
N352        N  0.74707303  0.47321214  0.25241317    -0.80000
O353        O  0.04501943  0.46979930  0.63531335    -0.81100
O354        O  0.14824486  0.36235675  0.56142485    -0.65800
O355        O  0.07385714  0.42772626  0.58317897    -1.12400
C356        C  0.04940298  0.34119947  0.66481327     1.05700
O357        O  0.10797171  0.32253626  0.56078450    -0.79000
O358        O  0.04436074  0.32170302  0.58435409    -0.66600
Ni359      Ni  0.07992973  0.47283529  0.60043253     1.34900
C360        C  0.03035376  0.34556937  0.56573716     0.84500
O361        O  0.12879761  0.43115158  0.53875122    -0.79600
O362        O  0.11192900  0.48063214  0.56556901    -0.89900
C363        C  0.13910503  0.33079116  0.55603485     0.84100
O364        O  0.11868425  0.46117610  0.63218047    -0.68100
O365        O  0.07345591  0.32226079  0.65198305    -0.87300
C366        C  0.14620187  0.44286634  0.62660381     0.84900
C367        C  0.12784440  0.46461260  0.54188288     1.06400
H368        H  0.11070615  0.37505581  0.63026755     0.38300
O369        O  0.09594061  0.37124931  0.60976809    -1.10000
O370        O  0.03186364  0.37686598  0.57470926    -0.66700
Ni371      Ni  0.05415297  0.39753087  0.61466533     1.26300
O372        O  0.14685282  0.41848326  0.60444050    -0.66900
O373        O  0.03515890  0.36688120  0.64827549    -0.79200
C374        C  0.01537388  0.45525712  0.63138927     0.84300
O375        O  0.01357598  0.42577693  0.61749837    -0.66400
Ni376      Ni  0.09064977  0.32274591  0.60601949     1.27400
Ni377      Ni  0.11291608  0.39829378  0.57271695     1.26100
H378        H  0.05889870  0.42997005  0.56250464     0.38800
O379        O  0.63739505  0.04828488  0.46678835    -0.81100
O380        O  0.54197601  0.15636689  0.37939056    -0.65800
O381        O  0.57632071  0.08036398  0.43644468    -1.12400
C382        C  0.64479173  0.05726630  0.33921651     1.05700
O383        O  0.53634847  0.11421701  0.34191628    -0.79000
O384        O  0.56486096  0.05317471  0.32750683    -0.66600
Ni385      Ni  0.60339208  0.08530815  0.47779421     1.34900
C386        C  0.54780179  0.03937397  0.35049616     0.84500
O387        O  0.53088603  0.13541083  0.44984455    -0.79600
O388        O  0.56983428  0.11927275  0.49299609    -0.89900
C389        C  0.53368959  0.14597059  0.34846295     0.84100
O390        O  0.63267811  0.12158598  0.46231526    -0.68100
O391        O  0.62909069  0.08288766  0.32387143    -0.87300
C392        C  0.62226215  0.15048892  0.44913726     0.84900
C393        C  0.54091971  0.13389964  0.48237810     1.06400
H394        H  0.61468889  0.11617747  0.38186846     0.38300
O395        O  0.59358871  0.10302249  0.37922866    -1.10000
O396        O  0.55826760  0.04150190  0.38193317    -0.66700
Ni397      Ni  0.60209396  0.06032756  0.40051198     1.26300
O398        O  0.59398507  0.15337256  0.43043561    -0.66900
O399        O  0.63105330  0.04176446  0.36418404    -0.79200
C400        C  0.63095055  0.01984409  0.45070533     0.84300
O401        O  0.60987131  0.01907351  0.42479412    -0.66400
Ni402      Ni  0.58203928  0.09917300  0.33156473     1.27400
Ni403      Ni  0.56020002  0.12050826  0.41177067     1.26100
H404        H  0.55654235  0.06640964  0.44097792     0.38800
C405        C  0.49030081  0.25224477  0.64356766     0.80000
N406        N  0.49028782  0.22230331  0.62390987    -0.78300
C407        C  0.49181169  0.22411219  0.58865139     0.82400
N408        N  0.49449984  0.25514567  0.57410405    -0.78300
C409        C  0.49470981  0.28482132  0.59214937     0.82500
N410        N  0.49226557  0.28365093  0.62721346    -0.80000
O411        O  0.46318677  0.33586314  0.37028493    -0.81100
O412        O  0.37852787  0.42593386  0.47636382    -0.65800
O413        O  0.40448707  0.36440262  0.40301760    -1.12400
C414        C  0.46705036  0.45942158  0.36680312     1.05700
O415        O  0.36975278  0.46470503  0.43543418    -0.79000
O416        O  0.38514589  0.47027532  0.37087377    -0.66600
Ni417      Ni  0.43385454  0.32503881  0.40916880     1.34900
C418        C  0.36677146  0.44508485  0.36042921     0.84500
O419        O  0.36608674  0.35420357  0.45896234    -0.79600
O420        O  0.40401026  0.31042053  0.44435495    -0.89900
C421        C  0.36978280  0.45691966  0.46694175     0.84100
O422        O  0.46587123  0.34370077  0.44465216    -0.68100
O423        O  0.45580273  0.47767574  0.39171304    -0.87300
C424        C  0.45684459  0.35824455  0.47272921     0.84900
C425        C  0.37613348  0.32175696  0.45820184     1.06400
H426        H  0.44622889  0.42264128  0.43222843     0.38300
O427        O  0.42349765  0.42418637  0.42033164    -1.10000
O428        O  0.37936550  0.41449307  0.36289096    -0.66700
Ni429      Ni  0.42590981  0.39909216  0.37889657     1.26300
O430        O  0.42937921  0.37729231  0.47361611    -0.66900
O431        O  0.45016343  0.43374821  0.35459586    -0.79200
C432        C  0.45097341  0.34762971  0.34099871     0.84300
O433        O  0.42770965  0.37122506  0.33976296    -0.66400
Ni434      Ni  0.41223958  0.47163573  0.41397111     1.27400
Ni435      Ni  0.39269067  0.39223458  0.44121992     1.26100
H436        H  0.38325617  0.35743977  0.39066965     0.38800
C437        C  0.63658875  0.48005030  0.25462245     0.80000
N438        N  0.61563197  0.48384796  0.22483592    -0.78300
C439        C  0.57982569  0.48618916  0.22641660     0.82400
N440        N  0.56590002  0.48502397  0.25744521    -0.78300
C441        C  0.58530040  0.48111189  0.28687259     0.82500
N442        N  0.62097661  0.47834785  0.28577166    -0.80000
C443        C  0.48332350  0.74117695  0.85091002     0.80000
N444        N  0.48370566  0.77095132  0.87118385    -0.78300
C445        C  0.48355900  0.76852849  0.90667309     0.82400
N446        N  0.48349866  0.73688754  0.92068762    -0.78300
C447        C  0.48314902  0.70774274  0.90174947     0.82500
N448        N  0.48272153  0.70967744  0.86672062    -0.80000
O449        O  0.46267250  0.62913519  0.04196374    -0.81100
O450        O  0.36783186  0.54753737  0.14330330    -0.65800
O451        O  0.42769354  0.57358737  0.07095173    -1.12400
C452        C  0.33148611  0.64964131  0.04209978     1.05700
O453        O  0.32497052  0.54379977  0.10340600    -0.79000
O454        O  0.31877205  0.56692724  0.03892292    -0.66600
Ni455      Ni  0.47101080  0.59527274  0.07885021     1.34900
C456        C  0.34381795  0.54991017  0.02610162     0.84500
O457        O  0.43837022  0.52990256  0.12733429    -0.79600
O458        O  0.48427841  0.56173733  0.11324196    -0.89900
C459        C  0.33579097  0.54061677  0.13461213     0.84100
O460        O  0.45588588  0.62677263  0.11437117    -0.68100
O461        O  0.31413505  0.63447829  0.06453656    -0.87300
C462        C  0.43829521  0.61992323  0.14050417     0.84900
C463        C  0.47154591  0.53625755  0.12860769     1.06400
H464        H  0.37085138  0.61658476  0.10297026     0.38300
O465        O  0.36859005  0.59567537  0.08940312    -1.10000
O466        O  0.37474103  0.56079154  0.02791338    -0.66700
Ni467      Ni  0.39269256  0.60250546  0.04888160     1.26300
O468        O  0.41794552  0.59466134  0.14135027    -0.66900
O469        O  0.35736927  0.63431732  0.02805886    -0.79200
C470        C  0.44772210  0.62369527  0.01220263     0.84300
O471        O  0.41935992  0.60767420  0.00972196    -0.66400
Ni472      Ni  0.31986720  0.58872131  0.08353191     1.27400
Ni473      Ni  0.40076747  0.56098970  0.10882103     1.26100
H474        H  0.43200981  0.55314445  0.05712894     0.38800
C475        C  0.25204995  0.61887995  0.49922812     0.80000
N476        N  0.28358734  0.60107482  0.50429041    -0.78300
C477        C  0.28460929  0.56592945  0.50769894     0.82400
N478        N  0.25449478  0.54917563  0.50524096    -0.78300
C479        C  0.22311013  0.56494275  0.49970022     0.82500
N480        N  0.22150579  0.60046790  0.49693934    -0.80000
O481        O  0.62790486  0.93932264  0.15391485    -0.81100
O482        O  0.51878972  0.85709549  0.05493291    -0.65800
O483        O  0.59510175  0.88263264  0.11990706    -1.12400
C484        C  0.62731405  0.95075366  0.02651984     1.05700
O485        O  0.56072460  0.85058214  0.01852572    -0.79000
O486        O  0.62546703  0.86918937  0.01456591    -0.66600
Ni487      Ni  0.59024914  0.90718185  0.16152816     1.34900
C488        C  0.63814507  0.85183954  0.04001478     0.84500
O489        O  0.53740458  0.84230771  0.12749827    -0.79600
O490        O  0.55519981  0.87531846  0.17359884    -0.89900
C491        C  0.52873691  0.84870533  0.02440913     0.84100
O492        O  0.55482715  0.93956299  0.14402690    -0.68100
O493        O  0.60249038  0.93819128  0.00755009    -0.87300
C494        C  0.52557880  0.93205731  0.12908697     0.84900
C495        C  0.53887418  0.84950957  0.16042349     1.06400
H496        H  0.56290561  0.92547788  0.06173365     0.38300
O497        O  0.57562753  0.90364722  0.06040006    -1.10000
O498        O  0.63659370  0.86386165  0.07046136    -0.66700
Ni499      Ni  0.61820438  0.90778845  0.08673518     1.32700
O500        O  0.52263654  0.90678248  0.10776371    -0.66900
O501        O  0.64047505  0.93516882  0.05318852    -0.79200
C502        C  0.65764351  0.93096128  0.14201277     0.84300
O503        O  0.65921310  0.91147361  0.11582479    -0.66400
Ni504      Ni  0.58116580  0.89400774  0.01291363     1.27400
Ni505      Ni  0.55497416  0.87130895  0.09098605     1.26100
H506        H  0.60816836  0.86152679  0.12540987     0.38800
C507        C  0.73592992  0.66685546  0.00374023     0.80000
N508        N  0.76723910  0.68180304  0.99730592    -0.78300
C509        C  0.77119116  0.71668442  0.00204327     0.82400
N510        N  0.74406192  0.73615710  0.01216866    -0.78300
C511        C  0.71288629  0.72283190  0.01767951     0.82500
N512        N  0.70834221  0.68793904  0.01333584    -0.80000
O513        O  0.83670467  0.04367032  0.55130798    -0.81100
O514        O  0.93146311  0.14332026  0.64475786    -0.65800
O515        O  0.89899838  0.07294732  0.58090376    -1.12400
C516        C  0.83786671  0.03737362  0.67562867     1.05700
O517        O  0.94134516  0.10112453  0.68202923    -0.79000
O518        O  0.92116853  0.03607345  0.68467634    -0.66600
Ni519      Ni  0.86877915  0.08169842  0.54232163     1.34900
C520        C  0.93640189  0.02468498  0.65837409     0.84500
O521        O  0.94040278  0.12924520  0.57268179    -0.79600
O522        O  0.90070797  0.11638900  0.52935484    -0.89900
C523        C  0.94191894  0.13298153  0.67511989     0.84100
O524        O  0.83918567  0.11699335  0.56319523    -0.68100
O525        O  0.85233014  0.06097203  0.69411454    -0.87300
C526        C  0.84910483  0.14402785  0.57978036     0.84900
C527        C  0.92877220  0.13097118  0.54071118     1.06400
H528        H  0.86226908  0.10176305  0.64124195     0.38300
O529        O  0.88420155  0.08881345  0.64154292    -1.10000
O530        O  0.92270730  0.02896549  0.62829982    -0.66700
Ni531      Ni  0.87705593  0.04842199  0.61495942     1.26300
O532        O  0.87815308  0.14457875  0.59715485    -0.66900
O533        O  0.85257158  0.02437625  0.64954268    -0.79200
C534        C  0.84575847  0.01345404  0.56297807     0.84300
O535        O  0.87026571  0.01011132  0.58565077    -0.66400
Ni536      Ni  0.89751528  0.08070949  0.68837885     1.27400
Ni537      Ni  0.91427678  0.11015261  0.60984806     1.26100
H538        H  0.91921149  0.06004929  0.57327732     0.38800
C539        C  0.71622196  0.99171346  0.73480280     0.80000
N540        N  0.68060736  0.99393204  0.73690908    -0.78300
C541        C  0.66540565  0.98408738  0.76663475     0.82400
N542        N  0.68670346  0.97284793  0.79425812    -0.78300
C543        C  0.72232689  0.97101903  0.79149058     0.82500
N544        N  0.73604765  0.98030510  0.76199035    -0.80000
O545        O  0.94834078  0.82583729  0.86364885    -0.81100
O546        O  0.86464949  0.92424588  0.96594427    -0.65800
O547        O  0.89143345  0.86103947  0.89364698    -1.12400
C548        C  0.96042360  0.95414750  0.86057433     1.05700
O549        O  0.85951502  0.96409919  0.92562119    -0.79000
O550        O  0.87690443  0.96695446  0.86198399    -0.66600
Ni551      Ni  0.91569007  0.81855692  0.90053843     1.34900
C552        C  0.85893083  0.94156896  0.85130471     0.84500
O553        O  0.84861994  0.85393870  0.94774447    -0.79600
O554        O  0.88246588  0.80693064  0.93361176    -0.89900
C555        C  0.85672154  0.95552220  0.95662564     0.84100
O556        O  0.94722958  0.83382090  0.93800091    -0.68100
O557        O  0.94783991  0.97274504  0.88455209    -0.87300
C558        C  0.93803867  0.84900181  0.96574527     0.84900
C559        C  0.85578818  0.82089475  0.94736207     1.06400
H560        H  0.93459648  0.91767072  0.92584463     0.38300
O561        O  0.91273893  0.91995734  0.91239512    -1.10000
O562        O  0.87231807  0.91126148  0.85238446    -0.66700
Ni563      Ni  0.91714932  0.89424606  0.87113045     1.26300
O564        O  0.91314212  0.87156476  0.96553496    -0.66900
O565        O  0.94485740  0.92753777  0.84866256    -0.79200
C566        C  0.93918031  0.83867322  0.83395950     0.84300
O567        O  0.92057333  0.86604644  0.83173756    -0.66400
Ni568      Ni  0.90330033  0.96805842  0.90548853     1.27400
Ni569      Ni  0.87905857  0.88966444  0.93144884     1.26100
H570        H  0.87029623  0.85602902  0.88011379     0.38800
O571        O  0.14717635  0.64308841  0.94431532    -0.81100
O572        O  0.05695922  0.52746023  0.86672407    -0.65800
O573        O  0.11469852  0.60587629  0.88892395    -1.12400
C574        C  0.01583465  0.64154266  0.94984733     1.05700
O575        O  0.01590584  0.56628229  0.85332236    -0.79000
O576        O  0.00605785  0.63282291  0.86536538    -0.66600
Ni577      Ni  0.15700690  0.60186891  0.91608458     1.34900
C578        C  0.03142960  0.64478867  0.84977995     0.84500
O579        O  0.12645525  0.54534837  0.85285255    -0.79600
O580        O  0.17153980  0.56331573  0.88797606    -0.89900
C581        C  0.02523909  0.53488564  0.85655838     0.84100
O582        O  0.14102177  0.57027224  0.94996268    -0.68100
O583        O  0.99822613  0.61743771  0.93537956    -0.87300
C584        C  0.12669017  0.54138101  0.94323176     0.84900
C585        C  0.15944508  0.54599175  0.86196894     1.06400
H586        H  0.05682207  0.57797320  0.92985331     0.38300
O587        O  0.05523961  0.58854078  0.90737258    -1.10000
O588        O  0.06171419  0.64565729  0.86491990    -0.66700
Ni589      Ni  0.07869360  0.63085936  0.91088579     1.26300
O590        O  0.10633285  0.53744011  0.91674287    -0.66900
O591        O  0.04229556  0.65435616  0.93605212    -0.79200
C592        C  0.13320787  0.67170143  0.93320959     0.84300
O593        O  0.10536132  0.67163250  0.91413537    -0.66400
Ni594      Ni  0.00702148  0.59212352  0.89367392     1.27400
Ni595      Ni  0.08854544  0.56544304  0.87867054     1.26100
H596        H  0.11978509  0.61689532  0.86751147     0.38800
C597        C  0.98922988  0.73469240  0.66268452     0.80000
N598        N  0.97850843  0.76464939  0.67898071    -0.78300
C599        C  0.98173264  0.76722402  0.71423717     0.82400
N600        N  0.99517519  0.74047797  0.73267553    -0.78300
C601        C  0.00521068  0.71064800  0.71800828     0.82500
N602        N  0.00189734  0.70720462  0.68269457    -0.80000
C603        C  0.90900534  0.48373532  0.72188451     0.80000
N604        N  0.87340377  0.48518760  0.72345723    -0.78300
C605        C  0.85849657  0.48229229  0.75473610     0.82400
N606        N  0.87987047  0.47822306  0.78409108    -0.78300
C607        C  0.91545632  0.47550542  0.78190184     0.82500
N608        N  0.92900221  0.47841278  0.75088092    -0.80000
C609        C  0.31849877  0.48679540  0.74354875     0.80000
N610        N  0.30126617  0.47730757  0.71325718    -0.78300
C611        C  0.26566647  0.47565692  0.71163327     0.82400
N612        N  0.24775782  0.48326025  0.73967392    -0.78300
C613        C  0.26364052  0.49255262  0.76986144     0.82500
N614        N  0.29940055  0.49455950  0.77187115    -0.80000
C615        C  0.73770196  0.84509127  0.50203488     0.80000
N616        N  0.76494112  0.86124994  0.51981147    -0.78300
C617        C  0.76512463  0.89680905  0.52100847     0.82400
N618        N  0.73936140  0.91498495  0.50427925    -0.78300
C619        C  0.71282022  0.89992333  0.48686244     0.82500
N620        N  0.71138997  0.86485323  0.48611248    -0.80000
C621        C  0.99561713  0.27522765  0.44455336     0.80000
N622        N  0.99425450  0.24439283  0.46002168    -0.78300
C623        C  0.99427267  0.21461367  0.44217807     0.82400
N624        N  0.99572502  0.21552571  0.40705868    -0.78300
C625        C  0.99864084  0.24655523  0.39058442     0.82500
N626        N  0.99833503  0.27660581  0.40963548    -0.80000
C627        C  0.97506882  0.22958956  0.78621123     0.80000
N628        N  0.97681242  0.22824857  0.82159942    -0.78300
C629        C  0.99024627  0.25550685  0.84068542     0.82400
N630        N  0.00291739  0.28326955  0.82354579    -0.78300
C631        C  0.00167010  0.28365030  0.78816291     0.82500
N632        N  0.98774319  0.25701923  0.77055361    -0.80000
C633        C  0.47508702  0.72895960  0.31490963     0.80000
N634        N  0.46522876  0.70006570  0.29653682    -0.78300
C635        C  0.46328310  0.70086885  0.26132992     0.82400
N636        N  0.47152869  0.72963151  0.24491275    -0.78300
C637        C  0.48193103  0.75825392  0.26175410     0.82500
N638        N  0.48383343  0.75807297  0.29719935    -0.80000
C639        C  0.77170942  0.00968279  0.27848618     0.80000
N640        N  0.75531262  0.99727898  0.24985080    -0.78300
C641        C  0.77277649  0.98467879  0.22314432     0.82400
N642        N  0.80859862  0.98406909  0.22500099    -0.78300
C643        C  0.82652654  0.99620334  0.25404925     0.82500
N644        N  0.80771066  0.00923102  0.28097951    -0.80000
C645        C  0.27611493  0.78116407  0.99491433     0.80000
N646        N  0.27796297  0.81656445  0.99654796    -0.78300
C647        C  0.24968826  0.83711852  0.98509622     0.82400
N648        N  0.21930398  0.82141235  0.97362307    -0.78300
C649        C  0.21798286  0.78603997  0.97229640     0.82500
N650        N  0.24638806  0.76696985  0.98261166    -0.80000
C651        C  0.73269436  0.31461488  0.52331336     0.80000
N652        N  0.70792515  0.29648732  0.50392309    -0.78300
C653        C  0.70904889  0.26095788  0.50369294     0.82400
N654        N  0.73350885  0.24439544  0.52391169    -0.78300
C655        C  0.75816444  0.26079756  0.54315027     0.82500
N656        N  0.75838396  0.29633348  0.54243541    -0.80000
C657        C  0.18018826  0.48827664  0.25991189     0.80000
N658        N  0.20044302  0.47784291  0.28851270    -0.78300
C659        C  0.23618378  0.47935122  0.28864029     0.82400
N660        N  0.25126220  0.49152637  0.26092802    -0.78300
C661        C  0.23267097  0.50207958  0.23250678     0.82500
N662        N  0.19672965  0.50022010  0.23160399    -0.80000
C663        C  0.24264488  0.37802352  0.99726665     0.80000
N664        N  0.21095078  0.39579094  0.99747625    -0.78300
C665        C  0.20988256  0.43120440  0.99663939     0.82400
N666        N  0.23990332  0.44802861  0.99438435    -0.78300
C667        C  0.27114630  0.43146669  0.99334063     0.82500
N668        N  0.27282983  0.39622633  0.99528091    -0.80000
C669        C  0.36845770  0.99540900  0.24568307     0.80000
N670        N  0.38348370  0.98807732  0.21490506    -0.78300
C671        C  0.41920861  0.98679241  0.21323186     0.82400
N672        N  0.43933626  0.99261612  0.24207275    -0.78300
C673        C  0.42543643  0.99967689  0.27267101     0.82500
N674        N  0.38979120  0.00107734  0.27462415    -0.80000
C675        C  0.50229992  0.25346586  0.17146554     0.80000
N676        N  0.51241762  0.22477527  0.19094491    -0.78300
C677        C  0.51804817  0.22839497  0.22603350     0.82400
N678        N  0.51286399  0.25945907  0.24054150    -0.78300
C679        C  0.50237550  0.28732554  0.22242398     0.82500
N680        N  0.49642129  0.28450684  0.18772835    -0.80000
C681        C  0.25785005  0.16068038  0.50619769     0.80000
N682        N  0.28794457  0.17759271  0.49900222    -0.78300
C683        C  0.28954282  0.21280753  0.50309501     0.82400
N684        N  0.26156943  0.23042030  0.51396350    -0.78300
C685        C  0.23171825  0.21531003  0.52104434     0.82500
N686        N  0.22938951  0.18004724  0.51697152    -0.80000
C687        C  0.98038938  0.70648677  0.07641311     0.80000
N688        N  0.98129301  0.70264565  0.11145728    -0.78300
C689        C  0.97789197  0.73119359  0.13257280     0.82400
N690        N  0.97447851  0.76359209  0.11777308    -0.78300
C691        C  0.97400639  0.76679577  0.08250152     0.82500
N692        N  0.97678121  0.73820091  0.06294897    -0.80000
C693        C  0.71010451  0.06776484  0.00893566     0.80000
N694        N  0.74055172  0.04981371  0.00976817    -0.78300
C695        C  0.77167820  0.06495250  0.00915935     0.82400
N696        N  0.77238627  0.10047229  0.00785346    -0.78300
C697        C  0.74152442  0.11987931  0.00777544     0.82500
N698        N  0.71029317  0.10304489  0.00799849    -0.80000
C699        C  0.06681027  0.98185667  0.71679266     0.80000
N700        N  0.10243932  0.98181289  0.71376139    -0.78300
C701        C  0.12440360  0.97963909  0.74298585     0.82400
N702        N  0.11007743  0.97782632  0.77470302    -0.78300
C703        C  0.07460625  0.97826841  0.77715805     0.82500
N704        N  0.05390197  0.98028299  0.74832306    -0.80000
C705        C  0.14882805  0.70549954  0.94351414    -0.00400
C706        C  0.15751565  0.71219073  0.97834894    -0.12300
C707        C  0.17538336  0.74207564  0.98862163     0.01800
C708        C  0.18606276  0.76581607  0.96383950    -0.00500
C709        C  0.17529163  0.76035310  0.92915976    -0.12200
C710        C  0.15647133  0.73076579  0.91893947     0.01700
H711        H  0.15125176  0.69349569  0.99757769     0.14700
H712        H  0.18410749  0.77755818  0.90968755     0.14700
C713        C  0.14813103  0.72531464  0.88267324     0.36300
C714        C  0.18527938  0.74640765  0.02476403     0.36200
N715        N  0.14143258  0.72081297  0.85362354    -0.44000
N716        N  0.19338416  0.74987833  0.05366189    -0.44000
C717        C  0.17738926  0.45334650  0.99367932    -0.00400
C718        C  0.15365405  0.44790978  0.96575963    -0.12300
C719        C  0.13361461  0.47558817  0.95102342     0.01800
C720        C  0.13721651  0.50990429  0.96434470    -0.00500
C721        C  0.15709250  0.51398848  0.99543200    -0.12200
C722        C  0.17675332  0.48618427  0.01021917     0.01700
H723        H  0.15372759  0.42293310  0.95287865     0.14700
H724        H  0.15949224  0.53951102  0.00688477     0.14700
C725        C  0.19894302  0.49287392  0.04062799     0.36300
C726        C  0.11269809  0.46801943  0.92005351     0.36200
N727        N  0.21677981  0.49832792  0.06489664    -0.44000
N728        N  0.09615677  0.46158298  0.89518974    -0.44000
C729        C  0.00601679  0.65399362  0.98479589    -0.00400
C730        C  0.97067363  0.65984162  0.99182651    -0.12300
C731        C  0.96102346  0.67258934  0.02418376     0.01800
C732        C  0.98673621  0.67857147  0.05091792    -0.00500
C733        C  0.02169194  0.66979373  0.04481749    -0.12200
C734        C  0.03149398  0.65785963  0.01224925     0.01700
H735        H  0.95066940  0.65617071  0.97146290     0.14700
H736        H  0.04185047  0.67516344  0.06461869     0.14700
C737        C  0.06804271  0.64981849  0.00783096     0.36300
C738        C  0.92480983  0.68245776  0.02850117     0.36200
N739        N  0.09738302  0.64325157  0.00467674    -0.44000
N740        N  0.89590004  0.69070163  0.03201078    -0.44000
C741        C  0.18669225  0.52756665  0.84155444    -0.00400
C742        C  0.22200799  0.53751708  0.84644172    -0.12300
C743        C  0.24834878  0.52499071  0.82526810     0.01800
C744        C  0.23996054  0.50146400  0.79848917    -0.00500
C745        C  0.20540120  0.48909115  0.79578511    -0.12200
C746        C  0.17897565  0.50196012  0.81658602     0.01700
H747        H  0.22908667  0.55662699  0.86593179     0.14700
H748        H  0.19838835  0.47002794  0.77620849     0.14700
C749        C  0.14424035  0.48863445  0.81126600     0.36300
C750        C  0.28299543  0.53850267  0.83042570     0.36200
N751        N  0.11641660  0.47793223  0.80693315    -0.44000
N752        N  0.31069321  0.54950005  0.83473635    -0.44000
C753        C  0.99771472  0.50897621  0.84857113    -0.00400
C754        C  0.00419873  0.48083943  0.82670222    -0.12300
C755        C  0.97617850  0.46442005  0.80894962     0.01800
C756        C  0.94116573  0.47710063  0.81202880    -0.00500
C757        C  0.93466253  0.50084828  0.83835931    -0.12200
C758        C  0.96249653  0.51653992  0.85678703     0.01700
H759        H  0.03092273  0.47369556  0.82108699     0.14700
H760        H  0.90808013  0.51009864  0.84197542     0.14700
C761        C  0.95391682  0.54222485  0.88240111     0.36300
C762        C  0.98413822  0.43648034  0.78545166     0.36200
N763        N  0.94654253  0.56261607  0.90294074    -0.44000
N764        N  0.99045602  0.41402338  0.76670807    -0.44000
C765        C  0.02579595  0.65737613  0.81279247    -0.00400
C766        C  0.05317571  0.67342569  0.79646469    -0.12300
C767        C  0.04875646  0.68625222  0.76247186     0.01800
C768        C  0.01659220  0.68314263  0.74325842    -0.00500
C769        C  0.99011728  0.66503564  0.75850066    -0.12200
C770        C  0.99433956  0.65209529  0.79242621     0.01700
H771        H  0.07793310  0.67707025  0.81063747     0.14700
H772        H  0.96480566  0.66337890  0.74480202     0.14700
C773        C  0.96527693  0.63418003  0.80555523     0.36300
C774        C  0.07693045  0.70481586  0.74845260     0.36200
N775        N  0.94191270  0.61974800  0.81586811    -0.44000
N776        N  0.09944115  0.71966586  0.73704243    -0.44000
C777        C  0.99470947  0.96254116  0.84590012    -0.00400
C778        C  0.01788139  0.93502808  0.83777876    -0.12300
C779        C  0.04851091  0.94060538  0.82027300     0.01800
C780        C  0.05625137  0.97410185  0.80956712    -0.00500
C781        C  0.03477523  0.00193695  0.82019965    -0.12200
C782        C  0.00456288  0.99653711  0.83858488     0.01700
H783        H  0.01143377  0.90879849  0.84411838     0.14700
H784        H  0.03989126  0.02776120  0.81142712     0.14700
C785        C  0.98261809  0.02608337  0.84672795     0.36300
C786        C  0.07013535  0.91119778  0.81086140     0.36200
N787        N  0.96516651  0.04990895  0.85322545    -0.44000
N788        N  0.08769759  0.88776557  0.80341860    -0.44000
C789        C  0.84254048  0.98340121  0.97947613    -0.00400
C790        C  0.84981284  0.01808004  0.97150921    -0.12300
C791        C  0.82977842  0.04623673  0.98380282     0.01800
C792        C  0.80237167  0.04025298  0.00566425    -0.00500
C793        C  0.79859425  0.00594432  0.01740764    -0.12200
C794        C  0.81738411  0.97767148  0.00375114     0.01700
H795        H  0.86948312  0.02310783  0.95315545     0.14700
H796        H  0.77802016  0.00058905  0.03466809     0.14700
C797        C  0.80686594  0.94316659  0.01141690     0.36300
C798        C  0.83561582  0.08024811  0.97067696     0.36200
N799        N  0.79799983  0.91554671  0.01714291    -0.44000
N800        N  0.84030654  0.10747200  0.96001587    -0.44000
C801        C  0.95326442  0.83726428  0.00049523    -0.00400
C802        C  0.93159061  0.83856940  0.02910091    -0.12300
C803        C  0.94022603  0.81977812  0.05958168     0.01800
C804        C  0.97149757  0.79972789  0.06247669    -0.00500
C805        C  0.99515464  0.80237874  0.03588332    -0.12200
C806        C  0.98614723  0.82006721  0.00502809     0.01700
H807        H  0.90623790  0.85175942  0.02662214     0.14700
H808        H  0.01934960  0.78705450  0.03754416     0.14700
C809        C  0.01033500  0.81816657  0.97770982     0.36300
C810        C  0.91506796  0.81866045  0.08598627     0.36200
N811        N  0.02973583  0.81642156  0.95580616    -0.44000
N812        N  0.89498566  0.81785581  0.10725625    -0.44000
C813        C  0.94952566  0.82235251  0.80110709    -0.00400
C814        C  0.98077563  0.83133740  0.78640810    -0.12300
C815        C  0.98986585  0.81752001  0.75425539     0.01800
C816        C  0.96691767  0.79544042  0.73544048    -0.00500
C817        C  0.93447464  0.78883583  0.74915654    -0.12200
C818        C  0.92595713  0.80152629  0.78177604     0.01700
H819        H  0.99858699  0.84826763  0.80052304     0.14700
H820        H  0.91731914  0.77055905  0.73604373     0.14700
C821        C  0.89385474  0.79085971  0.79599252     0.36300
C822        C  0.02423529  0.82376809  0.74236930     0.36200
N823        N  0.86835100  0.78195047  0.80755959    -0.44000
N824        N  0.05183292  0.82860396  0.73283814    -0.44000
C825        C  0.74871196  0.95986973  0.81873810    -0.00400
C826        C  0.76483146  0.92723542  0.81409516    -0.12300
C827        C  0.80021524  0.92057665  0.82430342     0.01800
C828        C  0.82093201  0.94713140  0.83953235    -0.00500
C829        C  0.80382058  0.97900355  0.84660251    -0.12200
C830        C  0.76829626  0.98533596  0.83661688     0.01700
H831        H  0.75058935  0.90769663  0.79945163     0.14700
H832        H  0.81831604  0.99941730  0.85955414     0.14700
C833        C  0.75290037  0.01915058  0.84282252     0.36300
C834        C  0.81463256  0.88658775  0.81705089     0.36200
N835        N  0.74037381  0.04615020  0.84790246    -0.44000
N836        N  0.82599554  0.85925656  0.81125769    -0.44000
C837        C  0.95098934  0.15727297  0.70423894    -0.00400
C838        C  0.93408103  0.18976996  0.70506475    -0.12300
C839        C  0.93870176  0.21199080  0.73357238     0.01800
C840        C  0.96094563  0.20226115  0.76246924    -0.00500
C841        C  0.97723715  0.16938244  0.76217932    -0.12200
C842        C  0.97249435  0.14694708  0.73359386     0.01700
H843        H  0.91674577  0.19778103  0.68348109     0.14700
H844        H  0.99541060  0.16201854  0.78333733     0.14700
C845        C  0.99147447  0.11412871  0.73452545     0.36300
C846        C  0.92097578  0.24542627  0.73197741     0.36200
N847        N  0.00669519  0.08785851  0.73530426    -0.44000
N848        N  0.90688436  0.27224552  0.73041325    -0.44000
C849        C  0.94765036  0.15002724  0.51385401    -0.00400
C850        C  0.98340938  0.15714982  0.51866945    -0.12300
C851        C  0.00103267  0.17480449  0.49331206     0.01800
C852        C  0.98344479  0.18429028  0.46162392    -0.00500
C853        C  0.94863675  0.17521663  0.45594910    -0.12200
C854        C  0.93036149  0.15974102  0.48178558     0.01700
H855        H  0.99737209  0.14990397  0.54260923     0.14700
H856        H  0.93433759  0.18412012  0.43269774     0.14700
C857        C  0.89293442  0.15777128  0.47540612     0.36300
C858        C  0.03664050  0.18482849  0.50112005     0.36200
N859        N  0.86294346  0.15668400  0.47024411    -0.44000
N860        N  0.06510285  0.19302301  0.50748388    -0.44000
C861        C  0.97221171  0.00867157  0.66300864    -0.00400
C862        C  0.97698093  0.97561117  0.67707873    -0.12300
C863        C  0.01053870  0.96328074  0.68820004     0.01800
C864        C  0.03974715  0.98506618  0.68792947    -0.00500
C865        C  0.03554968  0.01650680  0.67026231    -0.12200
C866        C  0.00222784  0.02790517  0.65702085     0.01700
H867        H  0.95439417  0.95995239  0.68061051     0.14700
H868        H  0.05747468  0.03357897  0.66953836     0.14700
C869        C  0.99904545  0.06044043  0.63913993     0.36300
C870        C  0.01414599  0.92907355  0.70268130     0.36200
N871        N  0.99636518  0.08625139  0.62430675    -0.44000
N872        N  0.01728833  0.90159463  0.71408202    -0.44000
C873        C  0.82695049  0.17680328  0.57770011    -0.00400
C874        C  0.84164330  0.20813493  0.56763402    -0.12300
C875        C  0.82044278  0.23807035  0.56004945     0.01800
C876        C  0.78383248  0.23721478  0.56287669    -0.00500
C877        C  0.77012104  0.20702991  0.57669332    -0.12200
C878        C  0.79099956  0.17719529  0.58368929     0.01700
H879        H  0.86946379  0.20864517  0.56365515     0.14700
H880        H  0.74215437  0.20584777  0.57970630     0.14700
C881        C  0.77477526  0.14703605  0.59662891     0.36300
C882        C  0.83640198  0.26844280  0.54730041     0.36200
N883        N  0.76186087  0.12288317  0.60718790    -0.44000
N884        N  0.84902418  0.29302203  0.53731762    -0.44000
C885        C  0.82581667  0.98193127  0.55386579    -0.00400
C886        C  0.84208140  0.95446399  0.53609718    -0.12300
C887        C  0.82462226  0.92336290  0.52880668     0.01800
C888        C  0.79078925  0.91874130  0.54046317    -0.00500
C889        C  0.77614723  0.94516607  0.56105170    -0.12200
C890        C  0.79292660  0.97657573  0.56726689     0.01700
H891        H  0.86808371  0.95773709  0.52696180     0.14700
H892        H  0.74984656  0.94246232  0.56971774     0.14700
C893        C  0.77555584  0.00323284  0.58691761     0.36300
C894        C  0.84085889  0.89750751  0.50746462     0.36200
N895        N  0.76161171  0.02465822  0.60253054    -0.44000
N896        N  0.85383012  0.87666124  0.49039607    -0.44000
C897        C  0.80250604  0.02523860  0.68420153    -0.00400
C898        C  0.77693995  0.04964446  0.69440729    -0.12300
C899        C  0.74384717  0.03934500  0.70420180     0.01800
C900        C  0.73633191  0.00400951  0.70580190    -0.00500
C901        C  0.76038217  0.98002729  0.69205503    -0.12200
C902        C  0.79288216  0.99032337  0.68080737     0.01700
H903        H  0.78293479  0.07686158  0.69506918     0.14700
H904        H  0.75518565  0.95266546  0.69325767     0.14700
C905        C  0.81669597  0.96416900  0.66809412     0.36300
C906        C  0.71852184  0.06523719  0.71445095     0.36200
N907        N  0.83574133  0.94334276  0.65758434    -0.44000
N908        N  0.69779177  0.08584158  0.72212445    -0.44000
C909        C  0.80088934  0.73671853  0.99039607    -0.00400
C910        C  0.80386728  0.73950711  0.95477334    -0.12300
C911        C  0.81928888  0.76826972  0.94058492     0.01800
C912        C  0.83283527  0.79505796  0.96204788    -0.00500
C913        C  0.83177262  0.79143623  0.99781660    -0.12200
C914        C  0.81575876  0.76285421  0.01203222     0.01700
H915        H  0.79148797  0.72062388  0.93772708     0.14700
H916        H  0.84383906  0.81067086  0.01466747     0.14700
C917        C  0.81415150  0.76140644  0.04904221     0.36300
C918        C  0.81974523  0.77039665  0.90350611     0.36200
N919        N  0.81328624  0.76070789  0.07876659    -0.44000
N920        N  0.81990671  0.77214791  0.87379238    -0.44000
C921        C  0.49306280  0.95022189  0.14084504    -0.00400
C922        C  0.46432872  0.92987122  0.14805886    -0.12300
C923        C  0.43759674  0.94241964  0.16894192     0.01800
C924        C  0.43817185  0.97657942  0.18185706    -0.00500
C925        C  0.46512499  0.99791282  0.17194345    -0.12200
C926        C  0.49249442  0.98508003  0.15206811     0.01700
H927        H  0.46461012  0.90282457  0.14050790     0.14700
H928        H  0.46638764  0.02401632  0.18223719     0.14700
C929        C  0.52058956  0.00777973  0.14523008     0.36300
C930        C  0.41289364  0.91828781  0.18088084     0.36200
N931        N  0.54298469  0.02620532  0.13997093    -0.44000
N932        N  0.39342245  0.89886392  0.19094629    -0.44000
C933        C  0.69059515  0.94503245  0.15780805    -0.00400
C934        C  0.69310654  0.98072237  0.16315385    -0.12300
C935        C  0.72279933  0.99456126  0.18019602     0.01800
C936        C  0.75053387  0.97257708  0.19321713    -0.00500
C937        C  0.74901188  0.93704523  0.18595120    -0.12200
C938        C  0.71952583  0.92324555  0.16808484     0.01700
H939        H  0.67150035  0.99779734  0.15463504     0.14700
H940        H  0.76946880  0.91974057  0.19659346     0.14700
C941        C  0.71819966  0.88628795  0.16314072     0.36300
C942        C  0.72336758  0.03146051  0.18614780     0.36200
N943        N  0.71682210  0.85669708  0.15906933    -0.44000
N944        N  0.72404043  0.06095513  0.19114832    -0.44000
C945        C  0.64132815  0.98515021  0.01847043    -0.00400
C946        C  0.65597348  0.99084267  0.98674680    -0.12300
C947        C  0.67451082  0.02102829  0.98125681     0.01800
C948        C  0.67837779  0.04647567  0.00760249    -0.00500
C949        C  0.66077787  0.04219901  0.03801974    -0.12200
C950        C  0.64236208  0.01191973  0.04355936     0.01700
H951        H  0.65499537  0.97074339  0.96713060     0.14700
H952        H  0.66398416  0.06101057  0.05870482     0.14700
C953        C  0.62539936  0.00834334  0.07566612     0.36300
C954        C  0.69238458  0.02391604  0.94954466     0.36200
N955        N  0.61151548  0.00529718  0.10120724    -0.44000
N956        N  0.70697086  0.02630551  0.92431981    -0.44000
C957        C  0.52201273  0.82768470  0.18668221    -0.00400
C958        C  0.53600667  0.82766800  0.22129648    -0.12300
C959        C  0.52170730  0.80794046  0.24731402     0.01800
C960        C  0.49293017  0.78701692  0.23917472    -0.00500
C961        C  0.47764408  0.78886250  0.20522031    -0.12200
C962        C  0.49164319  0.80883734  0.17941639     0.01700
H963        H  0.55883210  0.84270303  0.22813783     0.14700
H964        H  0.45478563  0.77383120  0.19841930     0.14700
C965        C  0.47318618  0.81088496  0.14629871     0.36300
C966        C  0.53780121  0.80870170  0.28169901     0.36200
N967        N  0.45780916  0.81311208  0.12001486    -0.44000
N968        N  0.55038640  0.80940759  0.30940814    -0.44000
C969        C  0.65433592  0.81639882  0.03459506    -0.00400
C970        C  0.67623476  0.80182561  0.06109455    -0.12300
C971        C  0.69197305  0.76884596  0.05765812     0.01800
C972        C  0.68569949  0.74876564  0.02748686    -0.00500
C973        C  0.66260958  0.76248243  0.00152312    -0.12200
C974        C  0.64685645  0.79571806  0.00478950     0.01700
H975        H  0.68216272  0.81672963  0.08431821     0.14700
H976        H  0.65868152  0.74816804  0.97757746     0.14700
C977        C  0.62332360  0.80772381  0.97692949     0.36300
C978        C  0.71687758  0.75714859  0.08451055     0.36200
N979        N  0.60441128  0.81714897  0.95455825    -0.44000
N980        N  0.73700382  0.74787799  0.10590766    -0.44000
C981        C  0.30929968  0.53082220  0.15997539    -0.00400
C982        C  0.28045598  0.51068903  0.14871019    -0.12300
C983        C  0.25334059  0.50305086  0.17071631     0.01800
C984        C  0.25408831  0.51615096  0.20470234    -0.00500
C985        C  0.28218557  0.53735652  0.21535240    -0.12200
C986        C  0.30940361  0.54461877  0.19368521     0.01700
H987        H  0.27934493  0.50031640  0.12266893     0.14700
H988        H  0.28351917  0.54749366  0.24150285     0.14700
C989        C  0.33664648  0.56706170  0.20655362     0.36300
C990        C  0.22618599  0.48021264  0.15854135     0.36200
N991        N  0.35848553  0.58506116  0.21685987    -0.44000
N992        N  0.20438449  0.46184845  0.14890062    -0.44000
C993        C  0.33651220  0.51552496  0.01072074    -0.00400
C994        C  0.31626614  0.51368818  0.97987002    -0.12300
C995        C  0.29950374  0.48313363  0.97014543     0.01800
C996        C  0.30181162  0.45400635  0.99218642    -0.00500
C997        C  0.32582752  0.45442723  0.02062671    -0.12200
C998        C  0.34334657  0.48488349  0.02992375     0.01700
H999        H  0.31140295  0.53686096  0.96466413     0.14700
H1000       H  0.32788225  0.43242179  0.03778513     0.14700
C1001       C  0.36542535  0.48483357  0.06116474     0.36300
C1002       C  0.27667863  0.48365898  0.93936898     0.36200
N1003       N  0.38314579  0.48426294  0.08619149    -0.44000
N1004       N  0.25831924  0.48434656  0.91477908    -0.44000
C1005       C  0.32151640  0.68667613  0.03257655    -0.00400
C1006       C  0.33509757  0.70195958  0.00334500    -0.12300
C1007       C  0.32508118  0.73598058  0.99308208     0.01800
C1008       C  0.30137732  0.75603492  0.01225237    -0.00500
C1009       C  0.29050447  0.74200508  0.04305053    -0.12200
C1010       C  0.29996586  0.70807602  0.05323813     0.01700
H1011       H  0.35271552  0.68695639  0.98768199     0.14700
H1012       H  0.27172769  0.75664951  0.05778040     0.14700
C1013       C  0.28612893  0.69610896  0.08480785     0.36300
C1014       C  0.33864036  0.74946089  0.96208522     0.36200
N1015       N  0.27485092  0.68679286  0.11011814    -0.44000
N1016       N  0.35003887  0.76025118  0.93744663    -0.44000
C1017       C  0.44353453  0.63981860  0.17294910    -0.00400
C1018       C  0.47732116  0.64035838  0.18856140    -0.12300
C1019       C  0.48342437  0.65560879  0.22106794     0.01800
C1020       C  0.45553124  0.67115739  0.23858666    -0.00500
C1021       C  0.42145867  0.66936010  0.22356975    -0.12200
C1022       C  0.41523057  0.65361618  0.19116567     0.01700
H1023       H  0.49906009  0.62872717  0.17532962     0.14700
H1024       H  0.40007077  0.68268977  0.23588611     0.14700
C1025       C  0.37996242  0.65409623  0.17607700     0.36300
C1026       C  0.51904786  0.65738781  0.23494835     0.36200
N1027       N  0.35167257  0.65461722  0.16404946    -0.44000
N1028       N  0.54757419  0.65890340  0.24608741    -0.44000
C1029       C  0.48463690  0.79798155  0.93275700    -0.00400
C1030       C  0.47091416  0.79169541  0.96536801    -0.12300
C1031       C  0.48198826  0.80966019  0.99558821     0.01800
C1032       C  0.50606708  0.83633224  0.99387958    -0.00500
C1033       C  0.51560270  0.84605694  0.96042330    -0.12200
C1034       C  0.50543921  0.82720112  0.93027951     0.01700
H1035       H  0.45393790  0.76999534  0.96804496     0.14700
H1036       H  0.53365328  0.86692136  0.95808015     0.14700
C1037       C  0.51894156  0.83678410  0.89780965     0.36300
C1038       C  0.47171090  0.79665565  0.02803023     0.36200
N1039       N  0.52959731  0.84466151  0.87172229    -0.44000
N1040       N  0.46310764  0.78479751  0.05335905    -0.44000
C1041       C  0.48005724  0.67548232  0.92127813    -0.00400
C1042       C  0.50409970  0.67021414  0.94945237    -0.12300
C1043       C  0.49510459  0.65203431  0.97868033     0.01800
C1044       C  0.46127661  0.63845334  0.98008204    -0.00500
C1045       C  0.43895195  0.64014514  0.95000684    -0.12200
C1046       C  0.44796300  0.65862565  0.92093562     0.01700
H1047       H  0.52887064  0.68323431  0.94997932     0.14700
H1048       H  0.41324044  0.62907303  0.94989702     0.14700
C1049       C  0.42219110  0.66336366  0.89283122     0.36300
C1050       C  0.52069721  0.64914871  0.00717328     0.36200
N1051       N  0.40150250  0.66728187  0.87034992    -0.44000
N1052       N  0.54135291  0.64692107  0.02990013    -0.44000
C1053       C  0.55387308  0.49131481  0.19631450    -0.00400
C1054       C  0.51818327  0.48498938  0.20177498    -0.12300
C1055       C  0.49079275  0.49719521  0.17930933     0.01800
C1056       C  0.49845606  0.51520602  0.14947093    -0.00500
C1057       C  0.53423865  0.51780812  0.14184600    -0.12200
C1058       C  0.56170050  0.50648781  0.16492060     0.01700
H1059       H  0.51117410  0.47220387  0.22508361     0.14700
H1060       H  0.54101241  0.53066817  0.11849389     0.14700
C1061       C  0.59729152  0.51280166  0.15660688     0.36300
C1062       C  0.45527330  0.49342262  0.18926018     0.36200
N1063       N  0.62582658  0.51783229  0.14989837    -0.44000
N1064       N  0.42683773  0.49052777  0.19741569    -0.44000
C1065       C  0.35841235  0.48538818  0.49022507    -0.00400
C1066       C  0.36650774  0.51938300  0.48080244    -0.12300
C1067       C  0.34570624  0.54808860  0.49016529     0.01800
C1068       C  0.31684363  0.54313724  0.51043039    -0.00500
C1069       C  0.31339508  0.51012156  0.52535419    -0.12200
C1070       C  0.33321842  0.48118358  0.51476792     0.01700
H1071       H  0.38676095  0.52311431  0.46271418     0.14700
H1072       H  0.29199366  0.50595033  0.54200206     0.14700
C1073       C  0.32392103  0.44727752  0.52581186     0.36300
C1074       C  0.35201928  0.58113657  0.47508035     0.36200
N1075       N  0.31629653  0.42011698  0.53457800    -0.44000
N1076       N  0.35728909  0.60752341  0.46283494    -0.44000
C1077       C  0.50126327  0.46696572  0.35174372    -0.00400
C1078       C  0.52464156  0.43915400  0.34523968    -0.12300
C1079       C  0.55592306  0.44406377  0.32853885     0.01800
C1080       C  0.56479168  0.47737212  0.31806195    -0.00500
C1081       C  0.54235983  0.50543395  0.32640716    -0.12200
C1082       C  0.51081592  0.50051581  0.34275296     0.01700
H1083       H  0.51775793  0.41316550  0.35202504     0.14700
H1084       H  0.54769685  0.53091076  0.31684789     0.14700
C1085       C  0.48673596  0.52957836  0.34600781     0.36300
C1086       C  0.57663748  0.41407725  0.31901898     0.36200
N1087       N  0.46712978  0.55270805  0.34814273    -0.44000
N1088       N  0.59329111  0.39014804  0.31119422    -0.44000
C1089       C  0.31928386  0.23484731  0.49455717    -0.00400
C1090       C  0.32680302  0.26320538  0.51684357    -0.12300
C1091       C  0.34452416  0.29223204  0.50578782     0.01800
C1092       C  0.35494500  0.29358266  0.47167863    -0.00500
C1093       C  0.34948572  0.26437442  0.45018237    -0.12200
C1094       C  0.33199719  0.23532158  0.46123107     0.01700
H1095       H  0.31716410  0.26341057  0.54264190     0.14700
H1096       H  0.35852598  0.26449139  0.42414927     0.14700
C1097       C  0.32562854  0.20738725  0.43712690     0.36300
C1098       C  0.35249793  0.31975950  0.52997106     0.36200
N1099       N  0.32076546  0.18502124  0.41767709    -0.44000
N1100       N  0.35922347  0.34174101  0.54935957    -0.44000
C1101       C  0.32975182  0.45192659  0.34624675    -0.00400
C1102       C  0.31544503  0.48580952  0.34803698    -0.12300
C1103       C  0.28170802  0.49423077  0.33410577     0.01800
C1104       C  0.26098992  0.46877407  0.31754834    -0.00500
C1105       C  0.27390634  0.43446560  0.31807389    -0.12200
C1106       C  0.30755958  0.42576964  0.33251762     0.01700
H1107       H  0.33098142  0.50626669  0.35957911     0.14700
H1108       H  0.25874561  0.41471776  0.30475762     0.14700
C1109       C  0.31861795  0.38986936  0.33177704     0.36300
C1110       C  0.26978052  0.52994333  0.33479153     0.36200
N1111       N  0.32706347  0.36094757  0.33140450    -0.44000
N1112       N  0.26025668  0.55856656  0.33539690    -0.44000
C1113       C  0.46472421  0.33651327  0.30769636    -0.00400
C1114       C  0.50065908  0.33742504  0.30281489    -0.12300
C1115       C  0.51388290  0.32757470  0.27106136     0.01800
C1116       C  0.49096539  0.31668525  0.24356241    -0.00500
C1117       C  0.45487653  0.31965480  0.24734225    -0.12200
C1118       C  0.44165474  0.32850043  0.27927829     0.01700
H1119       H  0.51844834  0.34481933  0.32404579     0.14700
H1120       H  0.43715884  0.31014421  0.22694397     0.14700
C1121       C  0.40462182  0.32490869  0.28314768     0.36300
C1122       C  0.55135349  0.32450941  0.26847310     0.36200
N1123       N  0.37501154  0.32114201  0.28583250    -0.44000
N1124       N  0.58134720  0.32162623  0.26639527    -0.44000
C1125       C  0.47548141  0.34991176  0.50700425    -0.00400
C1126       C  0.45791278  0.35745362  0.53766577    -0.12300
C1127       C  0.46756500  0.34090206  0.56910208     0.01800
C1128       C  0.49559136  0.31660394  0.57061188    -0.00500
C1129       C  0.51688477  0.31420312  0.54194886    -0.12200
C1130       C  0.50675087  0.32968932  0.51023383     0.01700
H1131       H  0.43448827  0.37388184  0.53660250     0.14700
H1132       H  0.53912986  0.29616624  0.54290554     0.14700
C1133       C  0.52743087  0.32165824  0.48100731     0.36300
C1134       C  0.44638979  0.34680883  0.59840864     0.36200
N1135       N  0.54407598  0.31482699  0.45770398    -0.44000
N1136       N  0.42962386  0.35184430  0.62201839    -0.44000
C1137       C  0.51334861  0.02447616  0.34001978    -0.00400
C1138       C  0.48363869  0.04682383  0.33845076    -0.12300
C1139       C  0.45274209  0.03799116  0.31954581     0.01800
C1140       C  0.45079845  0.00575668  0.30243171    -0.00500
C1141       C  0.47938413  0.98214036  0.30696469    -0.12200
C1142       C  0.51051402  0.99131079  0.32515345     0.01700
H1143       H  0.48544084  0.07244288  0.34973507     0.14700
H1144       H  0.47844219  0.95733859  0.29378087     0.14700
C1145       C  0.53986410  0.96706198  0.32629104     0.36300
C1146       C  0.42526327  0.06403001  0.31474610     0.36200
N1147       N  0.56321641  0.94739526  0.32710825    -0.44000
N1148       N  0.40349967  0.08518662  0.31084789    -0.44000
C1149       C  0.68032898  0.04529147  0.32791898    -0.00400
C1150       C  0.70277755  0.06928321  0.31398446    -0.12300
C1151       C  0.73584591  0.05903974  0.30216195     0.01800
C1152       C  0.74776300  0.02419891  0.30448166    -0.00500
C1153       C  0.72606387  0.00064365  0.31999235    -0.12200
C1154       C  0.69279687  0.01063736  0.33130633     0.01700
H1155       H  0.69409090  0.09607738  0.31138429     0.14700
H1156       H  0.73377348  0.97346203  0.32030449     0.14700
C1157       C  0.67079039  0.98405246  0.34339634     0.36300
C1158       C  0.75584204  0.08413766  0.28487361     0.36200
N1159       N  0.65293352  0.96285839  0.35294324    -0.44000
N1160       N  0.77186208  0.10416463  0.27087703    -0.44000
C1161       C  0.68598570  0.23793336  0.48143955    -0.00400
C1162       C  0.64929039  0.24111617  0.48116494    -0.12300
C1163       C  0.62793975  0.21379396  0.46888954     0.01800
C1164       C  0.64320507  0.18221274  0.45697150    -0.00500
C1165       C  0.67962132  0.18005548  0.45530646    -0.12200
C1166       C  0.70078192  0.20738751  0.46667472     0.01700
H1167       H  0.63732242  0.26385904  0.49265731     0.14700
H1168       H  0.69177584  0.15645063  0.44575594     0.14700
C1169       C  0.73818148  0.20258939  0.46425885     0.36300
C1170       C  0.59056161  0.21785371  0.47146863     0.36200
N1171       N  0.76815006  0.19870667  0.46268060    -0.44000
N1172       N  0.56061839  0.22132012  0.47359590    -0.44000
C1173       C  0.52878305  0.16841122  0.31750403    -0.00400
C1174       C  0.50747490  0.15638511  0.28924073    -0.12300
C1175       C  0.50675240  0.17232729  0.25667283     0.01800
C1176       C  0.52792973  0.20082213  0.25157016    -0.00500
C1177       C  0.55114988  0.21089949  0.27911809    -0.12200
C1178       C  0.55128165  0.19561112  0.31174489     0.01700
H1179       H  0.49139185  0.13412863  0.29259637     0.14700
H1180       H  0.56762523  0.23288235  0.27580863     0.14700
C1181       C  0.57527529  0.20799188  0.33861892     0.36300
C1182       C  0.48371271  0.15932853  0.22931820     0.36200
N1183       N  0.59445870  0.21797882  0.36018256    -0.44000
N1184       N  0.46546096  0.14833864  0.20748293    -0.44000
C1185       C  0.52038099  0.15071911  0.51068862    -0.00400
C1186       C  0.49473389  0.17639202  0.50300363    -0.12300
C1187       C  0.48111782  0.19739001  0.52926040     0.01800
C1188       C  0.49398632  0.19396074  0.56422389    -0.00500
C1189       C  0.51612075  0.16567376  0.57246915    -0.12200
C1190       C  0.52863079  0.14369447  0.54645805     0.01700
H1191       H  0.48657988  0.18137281  0.47633448     0.14700
H1192       H  0.52556917  0.16198314  0.59901609     0.14700
C1193       C  0.55050462  0.11451846  0.55780377     0.36300
C1194       C  0.45494325  0.22356696  0.51933685     0.36200
N1195       N  0.56789345  0.09116643  0.56715279    -0.44000
N1196       N  0.43400775  0.24458745  0.51153122    -0.44000
C1197       C  0.68694838  0.92383703  0.46984950    -0.00400
C1198       C  0.70094595  0.94955959  0.44963432    -0.12300
C1199       C  0.68369635  0.98150029  0.44465208     0.01800
C1200       C  0.65100064  0.98774222  0.45873041    -0.00500
C1201       C  0.63542886  0.96117223  0.47650655    -0.12200
C1202       C  0.65346541  0.92950847  0.48274605     0.01700
H1203       H  0.72707483  0.94580681  0.44035293     0.14700
H1204       H  0.60967838  0.96558410  0.48641537     0.14700
C1205       C  0.63837706  0.90440408  0.50446348     0.36300
C1206       C  0.70079604  0.00809240  0.42639637     0.36200
N1207       N  0.62627140  0.88431473  0.52192060    -0.44000
N1208       N  0.71465199  0.02953386  0.41212377    -0.44000
C1209       C  0.14699322  0.48839527  0.51945242    -0.00400
C1210       C  0.13657455  0.52396196  0.51907649    -0.12300
C1211       C  0.15936668  0.55002879  0.51011629     0.01800
C1212       C  0.19279716  0.54082556  0.49909762    -0.00500
C1213       C  0.20053985  0.50501061  0.49387177    -0.12200
C1214       C  0.17883340  0.47907679  0.50501617     0.01700
H1215       H  0.11160343  0.53186323  0.52905993     0.14700
H1216       H  0.22554241  0.49688910  0.48410238     0.14700
C1217       C  0.19194963  0.44372656  0.50519143     0.36300
C1218       C  0.14897731  0.58563528  0.51581224     0.36200
N1219       N  0.20260964  0.41544909  0.50576210    -0.44000
N1220       N  0.14050861  0.61412786  0.52063156    -0.44000
C1221       C  0.03794767  0.33290701  0.70043548    -0.00400
C1222       C  0.06204353  0.31674766  0.72431566    -0.12300
C1223       C  0.05194505  0.30568598  0.75680999     0.01800
C1224       C  0.01698727  0.31017359  0.76626948    -0.00500
C1225       C  0.99363539  0.32875196  0.74365296    -0.12200
C1226       C  0.00372589  0.34032147  0.71134185     0.01700
H1227       H  0.08873348  0.31166685  0.71717539     0.14700
H1228       H  0.96637778  0.33146546  0.74990206     0.14700
C1229       C  0.97739893  0.35708313  0.68889626     0.36300
C1230       C  0.07710639  0.28681947  0.77887125     0.36200
N1231       N  0.95618958  0.37049296  0.67098471    -0.44000
N1232       N  0.09712869  0.27171268  0.79672893    -0.44000
C1233       C  0.01506494  0.33703024  0.53113965    -0.00400
C1234       C  0.98347102  0.31984675  0.52772830    -0.12300
C1235       C  0.97261985  0.30534376  0.49593128     0.01800
C1236       C  0.99492411  0.30559505  0.46784513    -0.00500
C1237       C  0.02398297  0.32667603  0.47000483    -0.12200
C1238       C  0.03376425  0.34299526  0.50126242     0.01700
H1239       H  0.96804855  0.31657157  0.55009227     0.14700
H1240       H  0.04099444  0.32758439  0.44853439     0.14700
C1241       C  0.06456108  0.36361348  0.50236341     0.36300
C1242       C  0.93979582  0.28774843  0.49327826     0.36200
N1243       N  0.08913952  0.38029634  0.50227834    -0.44000
N1244       N  0.91342121  0.27381677  0.49085029    -0.44000
C1245       C  0.17983491  0.45123155  0.64509024    -0.00400
C1246       C  0.20242511  0.42439485  0.65753620    -0.12300
C1247       C  0.23407937  0.43165437  0.67570473     0.01800
C1248       C  0.24420683  0.46617377  0.68064489    -0.00500
C1249       C  0.22308625  0.49271754  0.66551845    -0.12200
C1250       C  0.19114475  0.48562917  0.64801904     0.01700
H1251       H  0.19451425  0.39780593  0.65457821     0.14700
H1252       H  0.23017370  0.51940089  0.66990978     0.14700
C1253       C  0.17039477  0.51421689  0.63355855     0.36300
C1254       C  0.25418911  0.40358392  0.69184989     0.36200
N1255       N  0.15380532  0.53713842  0.62197928    -0.44000
N1256       N  0.27027858  0.38116410  0.70498249    -0.44000
C1257       C  0.16355593  0.30178801  0.54604935    -0.00400
C1258       C  0.15079056  0.27516572  0.52388750    -0.12300
C1259       C  0.17094264  0.24481035  0.51732409     0.01800
C1260       C  0.20425805  0.23985122  0.53393620    -0.00500
C1261       C  0.21615703  0.26584029  0.55716446    -0.12200
C1262       C  0.19667537  0.29649311  0.56285992     0.01700
H1263       H  0.12497272  0.27827305  0.51129839     0.14700
H1264       H  0.24197006  0.26289459  0.56984287     0.14700
C1265       C  0.21112864  0.32172212  0.58672140     0.36300
C1266       C  0.15765896  0.22006207  0.49231478     0.36200
N1267       N  0.22291854  0.34187547  0.60582040    -0.44000
N1268       N  0.14702302  0.20021524  0.47224022    -0.44000
C1269       C  0.98327564  0.47052112  0.64655556    -0.00400
C1270       C  0.98680267  0.49760703  0.67048451    -0.12300
C1271       C  0.95956596  0.50662266  0.69180143     0.01800
C1272       C  0.92826888  0.48775512  0.69006800    -0.00500
C1273       C  0.92259101  0.46462551  0.66263136    -0.12200
C1274       C  0.94955655  0.45637625  0.64041516     0.01700
H1275       H  0.01168118  0.51015792  0.67440046     0.14700
H1276       H  0.89839586  0.45066829  0.66041739     0.14700
C1277       C  0.94207674  0.43245530  0.61243556     0.36300
C1278       C  0.96576852  0.53310822  0.71769289     0.36200
N1279       N  0.93595773  0.41345337  0.58990832    -0.44000
N1280       N  0.97096275  0.55420438  0.73846860    -0.44000
C1281       C  0.16017775  0.98292565  0.47922726    -0.00400
C1282       C  0.16898400  0.99296795  0.51340718    -0.12300
C1283       C  0.18506866  0.02489119  0.52080286     0.01800
C1284       C  0.19326773  0.04742056  0.49393933    -0.00500
C1285       C  0.18113302  0.03891084  0.46030935    -0.12200
C1286       C  0.16394883  0.00770603  0.45303995     0.01700
H1287       H  0.16467348  0.97535343  0.53422906     0.14700
H1288       H  0.18691823  0.05571800  0.43925065     0.14700
C1289       C  0.14885164  0.00236183  0.41869967     0.36300
C1290       C  0.19426972  0.03370541  0.55620071     0.36200
N1291       N  0.13563998  0.99842193  0.39156572    -0.44000
N1292       N  0.20120837  0.04121380  0.58457444    -0.44000
C1293       C  0.02181276  0.82951524  0.49193152    -0.00400
C1294       C  0.99800171  0.80419694  0.48169333    -0.12300
C1295       C  0.98291735  0.78322316  0.50625718     0.01800
C1296       C  0.99230358  0.78656045  0.54235194    -0.00500
C1297       C  0.01272999  0.81470901  0.55255093    -0.12200
C1298       C  0.02704458  0.83615287  0.52792989     0.01700
H1299       H  0.99280897  0.79925052  0.45441688     0.14700
H1300       H  0.01946167  0.81875024  0.57969927     0.14700
C1301       C  0.04816366  0.86441897  0.54036731     0.36300
C1302       C  0.95884308  0.75755991  0.49311699     0.36200
N1303       N  0.06506235  0.88717932  0.55009260    -0.44000
N1304       N  0.93973374  0.73693922  0.48245496    -0.44000
C1305       C  0.03220830  0.82004960  0.30733889    -0.00400
C1306       C  0.03318666  0.82848580  0.27187438    -0.12300
C1307       C  0.01894474  0.80721693  0.24557260     0.01800
C1308       C  0.00363216  0.77599797  0.25404367    -0.00500
C1309       C  0.00068925  0.76868784  0.28957134    -0.12200
C1310       C  0.01437220  0.79023007  0.31588070     0.01700
H1311       H  0.04561388  0.85183079  0.26419758     0.14700
H1312       H  0.98779162  0.74561604  0.29728524     0.14700
C1313       C  0.00927385  0.78103190  0.35121252     0.36300
C1314       C  0.02055686  0.81831791  0.21033000     0.36200
N1315       N  0.00483866  0.77379575  0.37948982    -0.44000
N1316       N  0.02154306  0.82754491  0.18213820    -0.44000
C1317       C  0.17043377  0.80855280  0.46090801    -0.00400
C1318       C  0.17053019  0.79324700  0.49381353    -0.12300
C1319       C  0.18366255  0.75922713  0.49990550     0.01800
C1320       C  0.19718546  0.73879118  0.47301241    -0.00500
C1321       C  0.19550687  0.75319629  0.43981580    -0.12200
C1322       C  0.18210331  0.78715844  0.43346337     0.01700
H1323       H  0.16115690  0.80820373  0.51536056     0.14700
H1324       H  0.20710002  0.73871072  0.41903787     0.14700
C1325       C  0.18161083  0.79923095  0.39841076     0.36300
C1326       C  0.18612249  0.74671420  0.53489376     0.36200
N1327       N  0.18114921  0.80849123  0.37014335    -0.44000
N1328       N  0.18847034  0.73643132  0.56282607    -0.44000
C1329       C  0.30317277  0.94779760  0.65181613    -0.00400
C1330       C  0.30168008  0.93010260  0.68296790    -0.12300
C1331       C  0.27129664  0.93152845  0.70189748     0.01800
C1332       C  0.24124819  0.95140753  0.69024406    -0.00500
C1333       C  0.24213035  0.96788253  0.65835226    -0.12200
C1334       C  0.27240284  0.96610875  0.63910331     0.01700
H1335       H  0.32428392  0.91492571  0.69257922     0.14700
H1336       H  0.22010129  0.98434371  0.64963749     0.14700
C1337       C  0.27148214  0.98465578  0.60694182     0.36300
C1338       C  0.27238521  0.91394711  0.73461674     0.36200
N1339       N  0.27084795  0.99919875  0.58100321    -0.44000
N1340       N  0.27355664  0.89995206  0.76087683    -0.44000
C1341       C  0.34589911  0.97419867  0.51503989    -0.00400
C1342       C  0.34834243  0.99996912  0.54080134    -0.12300
C1343       C  0.33431623  0.03361400  0.53502924     0.01800
C1344       C  0.31767675  0.04213377  0.50285214    -0.00500
C1345       C  0.31982110  0.01760291  0.47581923    -0.12200
C1346       C  0.33359173  0.98389186  0.48171564     0.01700
H1347       H  0.35880271  0.99312421  0.56636412     0.14700
H1348       H  0.30716819  0.02356774  0.45088583     0.14700
C1349       C  0.33328351  0.95913327  0.45374506     0.36300
C1350       C  0.33352085  0.05752191  0.56370253     0.36200
N1351       N  0.33345410  0.93921616  0.43136441    -0.44000
N1352       N  0.33293158  0.07658251  0.58679141    -0.44000
C1353       C  0.46788489  0.83623670  0.48532312    -0.00400
C1354       C  0.45050868  0.84186074  0.45273622    -0.12300
C1355       C  0.45646334  0.81990674  0.42445505     0.01800
C1356       C  0.48056969  0.79196072  0.42830686    -0.00500
C1357       C  0.50125251  0.78928188  0.45920273    -0.12200
C1358       C  0.49512091  0.81076191  0.48758609     0.01700
H1359       H  0.43045732  0.86209502  0.44976663     0.14700
H1360       H  0.52039494  0.76816215  0.46220427     0.14700
C1361       C  0.51587640  0.80423256  0.51904242     0.36300
C1362       C  0.43523433  0.82467362  0.39300721     0.36200
N1363       N  0.53264674  0.79866299  0.54410518    -0.44000
N1364       N  0.41818492  0.82863081  0.36782459    -0.44000
C1365       C  0.46263158  0.80287223  0.73778103    -0.00400
C1366       C  0.42747793  0.81110554  0.72824557    -0.12300
C1367       C  0.41845945  0.82975599  0.69788304     0.01800
C1368       C  0.44492354  0.83967429  0.67607484    -0.00500
C1369       C  0.48000040  0.83281202  0.68660565    -0.12200
C1370       C  0.48895525  0.81479805  0.71699293     0.01700
H1371       H  0.40696293  0.80079004  0.74311780     0.14700
H1372       H  0.50064501  0.84121862  0.67072018     0.14700
C1373       C  0.52545278  0.80628507  0.72493112     0.36300
C1374       C  0.38190142  0.83606762  0.68843997     0.36200
N1375       N  0.55464569  0.79924241  0.73118381    -0.44000
N1376       N  0.35254318  0.84096592  0.68096570    -0.44000
C1377       C  0.33327081  0.79991398  0.52978353    -0.00400
C1378       C  0.32037275  0.77944471  0.55590969    -0.12300
C1379       C  0.31145141  0.74494330  0.54973229     0.01800
C1380       C  0.31394626  0.73048728  0.51649826    -0.00500
C1381       C  0.33112827  0.74929782  0.49184546    -0.12200
C1382       C  0.34105067  0.78360971  0.49826298     0.01700
H1383       H  0.31620588  0.79073428  0.58107860     0.14700
H1384       H  0.33304273  0.73862595  0.46607166     0.14700
C1385       C  0.35623599  0.80219256  0.47095077     0.36300
C1386       C  0.29617115  0.72601387  0.57684937     0.36200
N1387       N  0.36842822  0.81699763  0.44896857    -0.44000
N1388       N  0.28417864  0.71087294  0.59874123    -0.44000
C1389       C  0.02523729  0.19013011  0.27762587    -0.00400
C1390       C  0.00064143  0.18213106  0.25076298    -0.12300
C1391       C  0.01103811  0.16837237  0.21925285     0.01800
C1392       C  0.04679409  0.16200957  0.21409258    -0.00500
C1393       C  0.07103012  0.16628677  0.24226341    -0.12200
C1394       C  0.06055870  0.18027584  0.27383216     0.01700
H1395       H  0.97333426  0.18951063  0.25336854     0.14700
H1396       H  0.09848553  0.15998175  0.23915156     0.14700
C1397       C  0.08667012  0.18559284  0.30131878     0.36300
C1398       C  0.98443418  0.16087416  0.19284621     0.36200
N1399       N  0.10776077  0.18918189  0.32336619    -0.44000
N1400       N  0.96279893  0.15461444  0.17203849    -0.44000
C1401       C  0.00986113  0.19591453  0.95649217    -0.00400
C1402       C  0.98957988  0.18976419  0.98515016    -0.12300
C1403       C  0.00357620  0.17236609  0.01472784     0.01800
C1404       C  0.03858137  0.15979798  0.01619748    -0.00500
C1405       C  0.05790412  0.16333558  0.98638143    -0.12200
C1406       C  0.04420785  0.18163618  0.95713515     0.01700
H1407       H  0.96331534  0.20099059  0.98550859     0.14700
H1408       H  0.08490107  0.15420144  0.98694368     0.14700
C1409       C  0.06725507  0.18900114  0.92998660     0.36300
C1410       C  0.98182468  0.16877391  0.04371718     0.36200
N1411       N  0.08569439  0.19528142  0.90829555    -0.44000
N1412       N  0.96457800  0.16580080  0.06709562    -0.44000
C1413       C  0.20264040  0.93955490  0.33989345    -0.00400
C1414       C  0.20857465  0.97511272  0.34202156    -0.12300
C1415       C  0.23681019  0.98959098  0.32603379     0.01800
C1416       C  0.25964082  0.96863400  0.30673835    -0.00500
C1417       C  0.25500627  0.93273448  0.30629774    -0.12200
C1418       C  0.22704800  0.91811071  0.32296743     0.01700
H1419       H  0.19069300  0.99186847  0.35548919     0.14700
H1420       H  0.27159449  0.91637560  0.29079512     0.14700
C1421       C  0.22248252  0.88130787  0.32020790     0.36300
C1422       C  0.24095268  0.02652357  0.32825526     0.36200
N1423       N  0.21892534  0.85178692  0.31783558    -0.44000
N1424       N  0.24446892  0.05608735  0.33006097    -0.44000
C1425       C  0.17696615  0.04095068  0.17068329    -0.00400
C1426       C  0.19381425  0.06587574  0.19188551    -0.12300
C1427       C  0.22804171  0.06001867  0.20622318     0.01800
C1428       C  0.24647731  0.02869276  0.19974990    -0.00500
C1429       C  0.23101457  0.00519423  0.17635254    -0.12200
C1430       C  0.19704836  0.01111013  0.16154736     0.01700
H1431       H  0.17992980  0.08972764  0.19812907     0.14700
H1432       H  0.24464057  0.98084464  0.17139755     0.14700
C1433       C  0.18388893  0.98584703  0.13702213     0.36300
C1434       C  0.24343754  0.08611270  0.22851531     0.36200
N1435       N  0.17384331  0.96547904  0.11720564    -0.44000
N1436       N  0.25586199  0.10729292  0.24599747    -0.44000
C1437       C  0.19333446  0.95754848  0.99534046    -0.00400
C1438       C  0.19684361  0.99235001  0.98491803    -0.12300
C1439       C  0.17736210  0.02003482  0.99913039     0.01800
C1440       C  0.15306150  0.01347522  0.02414201    -0.00500
C1441       C  0.14624234  0.97836242  0.03089110    -0.12200
C1442       C  0.16595217  0.95071359  0.01696190     0.01700
H1443       H  0.21693904  0.99841196  0.96736523     0.14700
H1444       H  0.12682847  0.97243786  0.04921764     0.14700
C1445       C  0.15927656  0.91597730  0.02751933     0.36300
C1446       C  0.18520294  0.05480598  0.98973109     0.36200
N1447       N  0.15385317  0.88807713  0.03585266    -0.44000
N1448       N  0.19187848  0.08250590  0.98181931    -0.44000
C1449       C  0.19244507  0.26213802  0.02303545    -0.00400
C1450       C  0.18331732  0.23329403  0.00227135    -0.12300
C1451       C  0.16886586  0.20368918  0.01612195     0.01800
C1452       C  0.16269695  0.20244257  0.05147119    -0.00500
C1453       C  0.17142462  0.23150508  0.07217948    -0.12200
C1454       C  0.18661936  0.26075323  0.05848205     0.01700
H1455       H  0.18927947  0.23319873  0.97525567     0.14700
H1456       H  0.16664583  0.23117954  0.09946976     0.14700
C1457       C  0.19877546  0.28771285  0.08168349     0.36300
C1458       C  0.16042238  0.17511035  0.99349960     0.36200
N1459       N  0.20897854  0.30926160  0.10008845    -0.44000
N1460       N  0.15382188  0.15218251  0.97525639    -0.44000
C1461       C  0.94479682  0.97418637  0.31600916    -0.00400
C1462       C  0.97447818  0.99407639  0.32415189    -0.12300
C1463       C  0.00437580  0.98000315  0.34208861     0.01800
C1464       C  0.00537941  0.94510529  0.35244083    -0.00500
C1465       C  0.97439592  0.92625104  0.34736795    -0.12200
C1466       C  0.94442139  0.94040440  0.32929387     0.01700
H1467       H  0.97526149  0.02016162  0.31426742     0.14700
H1468       H  0.97444722  0.89939739  0.35510555     0.14700
C1469       C  0.91497533  0.91865784  0.32169382     0.36300
C1470       C  0.03401213  0.00172440  0.34887272     0.36200
N1471       N  0.89124505  0.90138147  0.31551919    -0.44000
N1472       N  0.05769030  0.01918928  0.35457295    -0.44000
C1473       C  0.94157333  0.01411953  0.19931062    -0.00400
C1474       C  0.95761664  0.98875320  0.17869797    -0.12300
C1475       C  0.98838492  0.99538658  0.16132139     0.01800
C1476       C  0.00419017  0.02810554  0.16451354    -0.00500
C1477       C  0.98680412  0.05387475  0.18374775    -0.12200
C1478       C  0.95630741  0.04712789  0.20107470     0.01700
H1479       H  0.94759487  0.96281052  0.17826078     0.14700
H1480       H  0.99773483  0.07936140  0.18635836     0.14700
C1481       C  0.94229712  0.07365709  0.22328562     0.36300
C1482       C  0.00451712  0.96717480  0.14287314     0.36200
N1483       N  0.93109421  0.09463285  0.24139630    -0.44000
N1484       N  0.01734816  0.94430682  0.12831978    -0.44000
C1485       C  0.49557311  0.96311980  0.65625140    -0.00400
C1486       C  0.48434766  0.98222514  0.68449782    -0.12300
C1487       C  0.50860845  0.99426521  0.70981691     0.01800
C1488       C  0.54511605  0.98622261  0.70768990    -0.00500
C1489       C  0.55647400  0.97136373  0.67719495    -0.12200
C1490       C  0.53229462  0.96027949  0.65140814     0.01700
H1491       H  0.45655535  0.98593952  0.68800365     0.14700
H1492       H  0.58417800  0.96612331  0.67442585     0.14700
C1493       C  0.54630139  0.94461743  0.62091679     0.36300
C1494       C  0.49480249  0.01364228  0.73833194     0.36200
N1495       N  0.55753112  0.93187861  0.59661617    -0.44000
N1496       N  0.48347075  0.02907494  0.76106970    -0.44000
C1497       C  0.31666053  0.94855591  0.98203146    -0.00400
C1498       C  0.31733509  0.97929963  0.00178703    -0.12300
C1499       C  0.33317396  0.00910846  0.99038301     0.01800
C1500       C  0.35129763  0.00824291  0.95953258    -0.00500
C1501       C  0.35574119  0.97568475  0.94303934    -0.12200
C1502       C  0.33832671  0.94614332  0.95379411     0.01700
H1503       H  0.30139336  0.98142842  0.02409446     0.14700
H1504       H  0.36998468  0.97393113  0.91962761     0.14700
C1505       C  0.34039874  0.91477669  0.93361275     0.36300
C1506       C  0.32735805  0.04077169  0.00937900     0.36200
N1507       N  0.34223273  0.88948137  0.91763245    -0.44000
N1508       N  0.32201577  0.06603353  0.02459211    -0.44000
C1509       C  0.33877490  0.20331296  0.95643018    -0.00400
C1510       C  0.33993273  0.23528653  0.93923644    -0.12300
C1511       C  0.32418437  0.26549256  0.95276368     0.01800
C1512       C  0.30741356  0.26391001  0.98410157    -0.00500
C1513       C  0.31141036  0.23333793  0.00354090    -0.12200
C1514       C  0.32564226  0.20303038  0.98969031     0.01700
H1515       H  0.35125752  0.23630916  0.91424114     0.14700
H1516       H  0.29958266  0.23203373  0.02831637     0.14700
C1517       C  0.32456486  0.17179571  0.00965281     0.36300
C1518       C  0.32402067  0.29710633  0.93338789     0.36200
N1519       N  0.32324974  0.14678365  0.02558499    -0.44000
N1520       N  0.32435313  0.32262403  0.91811262    -0.44000
C1521       C  0.48475792  0.18977045  0.05899829    -0.00400
C1522       C  0.51299010  0.18337609  0.03769544    -0.12300
C1523       C  0.50787594  0.16855113  0.00476085     0.01800
C1524       C  0.47423254  0.15837776  0.99323679    -0.00500
C1525       C  0.44659903  0.16205709  0.01573203    -0.12200
C1526       C  0.45147891  0.17801200  0.04810246     0.01700
H1527       H  0.53823167  0.19407656  0.04497349     0.14700
H1528       H  0.42058965  0.15411907  0.00719990     0.14700
C1529       C  0.42115493  0.18606930  0.06770139     0.36300
C1530       C  0.53622949  0.16869570  0.98163713     0.36200
N1531       N  0.39682116  0.19289057  0.08320560    -0.44000
N1532       N  0.55875644  0.16952030  0.96289290    -0.44000
C1533       C  0.24003900  0.01733497  0.79281687    -0.00400
C1534       C  0.24420333  0.00538081  0.82669370    -0.12300
C1535       C  0.27330762  0.01479263  0.84778989     0.01800
C1536       C  0.29966753  0.03519675  0.83445209    -0.00500
C1537       C  0.29477575  0.04803025  0.80096825    -0.12200
C1538       C  0.26505429  0.03984276  0.78044388     0.01700
H1539       H  0.22554688  0.98763293  0.83620696     0.14700
H1540       H  0.31348542  0.06566320  0.79132374     0.14700
C1541       C  0.26083691  0.05447412  0.74630652     0.36300
C1542       C  0.27536385  0.00344378  0.88316874     0.36200
N1543       N  0.25724924  0.06611945  0.71897052    -0.44000
N1544       N  0.27646079  0.99464696  0.91160334    -0.44000
C1545       C  0.49243005  0.01407292  0.85976986    -0.00400
C1546       C  0.52636775  0.02589560  0.86878290    -0.12300
C1547       C  0.55632848  0.01073653  0.85472970     0.01800
C1548       C  0.55256602  0.98369108  0.83061360    -0.00500
C1549       C  0.51971892  0.96750582  0.82756218    -0.12200
C1550       C  0.48968575  0.98255474  0.84178538     0.01700
H1551       H  0.52928134  0.04894920  0.88462185     0.14700
H1552       H  0.51650661  0.94570010  0.81007357     0.14700
C1553       C  0.45616282  0.96719484  0.83462895     0.36300
C1554       C  0.58993803  0.02557034  0.86277437     0.36200
N1555       N  0.42924629  0.95480847  0.82924472    -0.44000
N1556       N  0.61692917  0.03721911  0.86970010    -0.44000
C1557       C  0.45279291  0.16520896  0.82318967    -0.00400
C1558       C  0.48376904  0.15763877  0.80594619    -0.12300
C1559       C  0.48998860  0.17223542  0.77369055     0.01800
C1560       C  0.46488501  0.19469604  0.75709445    -0.00500
C1561       C  0.43301801  0.20047533  0.77312926    -0.12200
C1562       C  0.42682193  0.18632403  0.80561830     0.01700
H1563       H  0.50392345  0.14102254  0.81817371     0.14700
H1564       H  0.41406699  0.21892455  0.76170926     0.14700
C1565       C  0.39464266  0.19643627  0.82127313     0.36300
C1566       C  0.52376114  0.16620082  0.75946054     0.36200
N1567       N  0.36889807  0.20484340  0.83376633    -0.44000
N1568       N  0.55088398  0.16143899  0.74812886    -0.44000
C1569       C  0.64178653  0.29452650  0.96489956    -0.00400
C1570       C  0.65515908  0.29305207  0.99904954    -0.12300
C1571       C  0.67154886  0.26279560  0.01212318     0.01800
C1572       C  0.67669089  0.23365783  0.99044634    -0.00500
C1573       C  0.65988555  0.23359167  0.95762020    -0.12200
C1574       C  0.64172935  0.26338227  0.94500015     0.01700
H1575       H  0.65371884  0.31588302  0.01534605     0.14700
H1576       H  0.66336624  0.21139966  0.94077676     0.14700
C1577       C  0.62497834  0.26138188  0.91092389     0.36300
C1578       C  0.68593036  0.26318796  0.04721336     0.36200
N1579       N  0.61111655  0.25918501  0.88386021    -0.44000
N1580       N  0.69763449  0.26334214  0.07525756    -0.44000
C1581       C  0.50708169  0.34459307  0.99261164    -0.00400
C1582       C  0.53564529  0.33117882  0.01304099    -0.12300
C1583       C  0.53097066  0.31418242  0.04409293     0.01800
C1584       C  0.49712373  0.31063253  0.05614683    -0.00500
C1585       C  0.46849468  0.32525793  0.03655329    -0.12200
C1586       C  0.47318053  0.34230884  0.00514424     0.01700
H1587       H  0.56193424  0.33274792  0.00403110     0.14700
H1588       H  0.44218367  0.32102726  0.04445749     0.14700
C1589       C  0.44265461  0.35426255  0.98487621     0.36300
C1590       C  0.56098879  0.29683050  0.06094533     0.36200
N1591       N  0.41818001  0.36367454  0.96851340    -0.44000
N1592       N  0.58492262  0.28250019  0.07413584    -0.44000
C1593       C  0.68947671  0.45636016  0.85433027    -0.00400
C1594       C  0.69507705  0.49146992  0.84881398    -0.12300
C1595       C  0.72528219  0.50181368  0.83282536     0.01800
C1596       C  0.75001485  0.47689230  0.82143305    -0.00500
C1597       C  0.74581052  0.44224088  0.82954664    -0.12200
C1598       C  0.71618036  0.43188513  0.84606951     0.01700
H1599       H  0.67617997  0.51072243  0.85725961     0.14700
H1600       H  0.76423853  0.42283202  0.82045344     0.14700
C1601       C  0.71333835  0.39554233  0.85333166     0.36300
C1602       C  0.73037409  0.53816906  0.82753536     0.36200
N1603       N  0.71136050  0.36645062  0.85933455    -0.44000
N1604       N  0.73494305  0.56726378  0.82356510    -0.44000
C1605       C  0.49325902  0.48289647  0.85137401    -0.00400
C1606       C  0.45980147  0.47129296  0.85908563    -0.12300
C1607       C  0.42980061  0.48045751  0.83862126     0.01800
C1608       C  0.43289361  0.50245714  0.81038855    -0.00500
C1609       C  0.46480806  0.51959311  0.80748281    -0.12200
C1610       C  0.49505886  0.50971727  0.82748103     0.01700
H1611       H  0.45772522  0.45158785  0.87853509     0.14700
H1612       H  0.46729244  0.53744461  0.78641685     0.14700
C1613       C  0.52799241  0.52457612  0.82023111     0.36300
C1614       C  0.39768064  0.46304049  0.84411850     0.36200
N1615       N  0.55432054  0.53677263  0.81449051    -0.44000
N1616       N  0.37200823  0.44900579  0.84861806    -0.44000
C1617       C  0.52658703  0.33768695  0.82620398    -0.00400
C1618       C  0.49277997  0.34156920  0.81031090    -0.12300
C1619       C  0.48429123  0.32683431  0.77792195     0.01800
C1620       C  0.50975652  0.30778887  0.76014805    -0.00500
C1621       C  0.54414768  0.30608863  0.77452854    -0.12200
C1622       C  0.55287181  0.32102962  0.80693647     0.01700
H1623       H  0.47233122  0.35524651  0.82368067     0.14700
H1624       H  0.56374432  0.29068348  0.76162358     0.14700
C1625       C  0.58875707  0.31757472  0.81995416     0.36300
C1626       C  0.44837393  0.32913362  0.76467029     0.36200
N1627       N  0.61767638  0.31496303  0.83000675    -0.44000
N1628       N  0.41954965  0.33095360  0.75419529    -0.44000
C1629       C  0.66550792  0.55741830  0.99036240    -0.00400
C1630       C  0.65925007  0.53053249  0.01355269    -0.12300
C1631       C  0.64241319  0.49999868  0.00255151     0.01800
C1632       C  0.63109848  0.49580742  0.96767566    -0.00500
C1633       C  0.63358816  0.52453129  0.94567105    -0.12200
C1634       C  0.65076013  0.55473629  0.95653210     0.01700
H1635       H  0.67067176  0.53189841  0.03963417     0.14700
H1636       H  0.62498324  0.52232787  0.91873360     0.14700
C1637       C  0.65731675  0.58046015  0.93110140     0.36300
C1638       C  0.63803726  0.47300580  0.02721901     0.36200
N1639       N  0.66287298  0.60096576  0.91071233    -0.44000
N1640       N  0.63420674  0.45140449  0.04699254    -0.44000
C1641       C  0.95521019  0.35263853  0.01536352    -0.00400
C1642       C  0.93535692  0.35437424  0.98360143    -0.12300
C1643       C  0.94594121  0.33612986  0.95406860     0.01800
C1644       C  0.97728689  0.31607926  0.95570077    -0.00500
C1645       C  0.99933586  0.31865684  0.98578253    -0.12200
C1646       C  0.98865889  0.33632723  0.01535363     0.01700
H1647       H  0.90988434  0.36740463  0.98250144     0.14700
H1648       H  0.02396107  0.30403225  0.98727136     0.14700
C1649       C  0.01192694  0.33554052  0.04577080     0.36300
C1650       C  0.92262665  0.33589539  0.92372801     0.36200
N1651       N  0.03070632  0.33479441  0.07006252    -0.44000
N1652       N  0.90374841  0.33610643  0.89950526    -0.44000
C1653       C  0.98295394  0.30633320  0.27543335    -0.00400
C1654       C  0.00535327  0.31285372  0.24859683    -0.12300
C1655       C  0.99278707  0.32729702  0.21722253     0.01800
C1656       C  0.95724706  0.33723574  0.21242173    -0.00500
C1657       C  0.93545320  0.33407956  0.24049890    -0.12200
C1658       C  0.94780921  0.31821899  0.27156160     0.01700
H1659       H  0.03239115  0.30362709  0.25099685     0.14700
H1660       H  0.90812783  0.34215258  0.23743991     0.14700
C1661       C  0.92330785  0.31167751  0.29766405     0.36300
C1662       C  0.01678498  0.33071455  0.19003170     0.36200
N1663       N  0.90363763  0.30639462  0.31855999    -0.44000
N1664       N  0.03593647  0.33326403  0.16812363    -0.44000
C1665       C  0.05879958  0.48575012  0.20050969    -0.00400
C1666       C  0.03324919  0.51277159  0.19752640    -0.12300
C1667       C  0.00008073  0.50786001  0.18087219     0.01800
C1668       C  0.99178473  0.47535163  0.16647345    -0.00500
C1669       C  0.01804000  0.44905074  0.16752309    -0.12200
C1670       C  0.05104716  0.45390843  0.18432670     0.01700
H1671       H  0.03800330  0.53687824  0.21118857     0.14700
H1672       H  0.01214482  0.42390873  0.15649512     0.14700
C1673       C  0.07507634  0.42461216  0.18788374     0.36300
C1674       C  0.97378513  0.53519925  0.18247414     0.36200
N1675       N  0.09419169  0.40101659  0.19084897    -0.44000
N1676       N  0.95261771  0.55700515  0.18415561    -0.44000
C1677       C  0.83415579  0.29746628  0.04560946    -0.00400
C1678       C  0.83260815  0.26733858  0.06587462    -0.12300
C1679       C  0.81483569  0.23779723  0.05406909     0.01800
C1680       C  0.79784467  0.23756153  0.02110215    -0.00500
C1681       C  0.80049594  0.26723995  0.00032435    -0.12200
C1682       C  0.81851519  0.29674449  0.01208669     0.01700
H1683       H  0.84515814  0.26699464  0.09154358     0.14700
H1684       H  0.78720435  0.26783485  0.97499965     0.14700
C1685       C  0.82168557  0.32521049  0.98884838     0.36300
C1686       C  0.81285414  0.20892277  0.07707822     0.36200
N1687       N  0.82449361  0.34774897  0.96989334    -0.44000
N1688       N  0.81150447  0.18583092  0.09565272    -0.44000
C1689       C  0.83385716  0.48903861  0.02720452    -0.00400
C1690       C  0.84153046  0.52348551  0.03684848    -0.12300
C1691       C  0.82003458  0.55174391  0.02582597     0.01800
C1692       C  0.79009959  0.54604398  0.00422793    -0.00500
C1693       C  0.78554952  0.51225323  0.99054660    -0.12200
C1694       C  0.80702250  0.48394775  0.00177828     0.01700
H1695       H  0.86285330  0.52811568  0.05563374     0.14700
H1696       H  0.76343057  0.50736706  0.97279223     0.14700
C1697       C  0.79913020  0.44987553  0.98886523     0.36300
C1698       C  0.82744274  0.58552856  0.03989807     0.36200
N1699       N  0.79274374  0.42269347  0.97809831    -0.44000
N1700       N  0.83342769  0.61260797  0.05119624    -0.44000
C1701       C  0.81928682  0.45197261  0.17044520    -0.00400
C1702       C  0.79904637  0.48256420  0.16461832    -0.12300
C1703       C  0.76498092  0.48647233  0.17664272     0.01800
C1704       C  0.74940956  0.45897803  0.19341679    -0.00500
C1705       C  0.76819535  0.42731399  0.19590258    -0.12200
C1706       C  0.80306587  0.42403725  0.18625821     0.01700
H1707       H  0.81045437  0.50425753  0.15223607     0.14700
H1708       H  0.75747767  0.40656556  0.21038572     0.14700
C1709       C  0.82254453  0.39312252  0.19694011     0.36300
C1710       C  0.74840610  0.52044128  0.17597845     0.36200
N1711       N  0.83832699  0.36870268  0.20618496    -0.44000
N1712       N  0.73527216  0.54772800  0.17608534    -0.44000
C1713       C  0.94354373  0.62879890  0.30176313    -0.00400
C1714       C  0.91854637  0.63798364  0.27534607    -0.12300
C1715       C  0.92836791  0.65449819  0.24518928     0.01800
C1716       C  0.96391964  0.66083900  0.24032790    -0.00500
C1717       C  0.98904688  0.64822626  0.26531473    -0.12200
C1718       C  0.97915558  0.63308268  0.29601275     0.01700
H1719       H  0.89104592  0.63433391  0.27928433     0.14700
H1720       H  0.01641153  0.65368630  0.26255775     0.14700
C1721       C  0.00581767  0.62388403  0.32214898     0.36300
C1722       C  0.90133993  0.66832906  0.22156428     0.36200
N1723       N  0.02690383  0.61689054  0.34351163    -0.44000
N1724       N  0.87980024  0.67972847  0.20264864    -0.44000
C1725       C  0.95066290  0.62070975  0.49786364    -0.00400
C1726       C  0.98166234  0.63868685  0.49483897    -0.12300
C1727       C  0.99493542  0.65983827  0.52158775     0.01800
C1728       C  0.97676396  0.66439590  0.55235366    -0.00500
C1729       C  0.94847484  0.64302622  0.55739420    -0.12200
C1730       C  0.93568183  0.62085157  0.53077912     0.01700
H1731       H  0.99452961  0.63802262  0.47057757     0.14700
H1732       H  0.93451082  0.64571469  0.58092591     0.14700
C1733       C  0.90593922  0.60030841  0.53763324     0.36300
C1734       C  0.02590929  0.67897232  0.51550427     0.36200
N1735       N  0.88238316  0.58362433  0.54361092    -0.44000
N1736       N  0.05056842  0.69441534  0.51042164    -0.44000
C1737       C  0.00191714  0.49513762  0.35570492    -0.00400
C1738       C  0.02399218  0.52326988  0.35175497    -0.12300
C1739       C  0.05647966  0.51926233  0.33631401     0.01800
C1740       C  0.06730762  0.48686456  0.32315163    -0.00500
C1741       C  0.04663725  0.45821223  0.32962157    -0.12200
C1742       C  0.01467610  0.46193176  0.34625522     0.01700
H1743       H  0.01533321  0.54878104  0.35997535     0.14700
H1744       H  0.05403176  0.43319440  0.31904437     0.14700
C1745       C  0.99428285  0.43164459  0.35065363     0.36300
C1746       C  0.07729777  0.54925666  0.33179614     0.36200
N1747       N  0.97821777  0.40714829  0.35419955    -0.44000
N1748       N  0.09437923  0.57305698  0.32829553    -0.44000
C1749       C  0.83832597  0.47682929  0.48476295    -0.00400
C1750       C  0.81338285  0.48930350  0.50726141    -0.12300
C1751       C  0.79047447  0.46668528  0.52257367     0.01800
C1752       C  0.79129875  0.43048662  0.51463465    -0.00500
C1753       C  0.81888509  0.41771096  0.49547024    -0.12200
C1754       C  0.84247450  0.44020731  0.48112467     0.01700
H1755       H  0.81049301  0.51693128  0.51156107     0.14700
H1756       H  0.82096115  0.39024137  0.48996497     0.14700
C1757       C  0.87047749  0.42467695  0.46218621     0.36300
C1758       C  0.76583879  0.48182975  0.54578306     0.36200
N1759       N  0.89294655  0.41207807  0.44717659    -0.44000
N1760       N  0.74621506  0.49414907  0.56435325    -0.44000
C1761       C  0.82118759  0.66125651  0.46264090    -0.00400
C1762       C  0.83536466  0.69203234  0.47684593    -0.12300
C1763       C  0.81430447  0.72143792  0.48411457     0.01800
C1764       C  0.77780120  0.72069715  0.47778009    -0.00500
C1765       C  0.76367385  0.68974006  0.46375187    -0.12200
C1766       C  0.78471398  0.66050380  0.45623835     0.01700
H1767       H  0.86347051  0.69350647  0.48145202     0.14700
H1768       H  0.73570894  0.68826991  0.45816975     0.14700
C1769       C  0.76831638  0.63092629  0.44010615     0.36300
C1770       C  0.83092398  0.75182201  0.49809254     0.36200
N1771       N  0.75509150  0.60730930  0.42709835    -0.44000
N1772       N  0.84433160  0.77624963  0.50911643    -0.44000
C1773       C  0.82751586  0.50054889  0.33903370    -0.00400
C1774       C  0.80619228  0.52829958  0.32597558    -0.12300
C1775       C  0.77206037  0.52334157  0.31203575     0.01800
C1776       C  0.75797399  0.49007314  0.31057883    -0.00500
C1777       C  0.77845302  0.46253267  0.32485195    -0.12200
C1778       C  0.81253221  0.46737452  0.33925577     0.01700
H1779       H  0.81631634  0.55417783  0.32603330     0.14700
H1780       H  0.76865208  0.43653827  0.32254290     0.14700
C1781       C  0.83141377  0.43743752  0.35321140     0.36300
C1782       C  0.75276364  0.55250651  0.29693607     0.36200
N1783       N  0.84620838  0.41327742  0.36448375    -0.44000
N1784       N  0.73722546  0.57585436  0.28488458    -0.44000
C1785       C  0.48826034  0.49872942  0.64649518    -0.00400
C1786       C  0.49736556  0.47813079  0.67509568    -0.12300
C1787       C  0.47124311  0.46662974  0.69611270     0.01800
C1788       C  0.43571494  0.47776446  0.68975120    -0.00500
C1789       C  0.42630481  0.49265625  0.65779995    -0.12200
C1790       C  0.45234186  0.50219139  0.63570966     0.01700
H1791       H  0.52472389  0.47382871  0.68291948     0.14700
H1792       H  0.39917527  0.49984457  0.65149733     0.14700
C1793       C  0.44179690  0.51797937  0.60311214     0.36300
C1794       C  0.48182551  0.44570922  0.72568841     0.36200
N1795       N  0.43356449  0.53024119  0.57676350    -0.44000
N1796       N  0.49010424  0.42883734  0.74933310    -0.44000
C1797       C  0.66202866  0.74427564  0.51405973    -0.00400
C1798       C  0.64902648  0.71906864  0.49083939    -0.12300
C1799       C  0.63103753  0.69080703  0.50244101     0.01800
C1800       C  0.62454369  0.68820164  0.53763846    -0.00500
C1801       C  0.63292383  0.71594835  0.55991362    -0.12200
C1802       C  0.65205285  0.74373934  0.54848156     0.01700
H1803       H  0.65649581  0.71935075  0.46425531     0.14700
H1804       H  0.62731151  0.71441075  0.58694844     0.14700
C1805       C  0.66506271  0.76874764  0.57339006     0.36300
C1806       C  0.62119246  0.66391322  0.47815276     0.36200
N1807       N  0.67575739  0.78874843  0.59327013    -0.44000
N1808       N  0.61338874  0.64223870  0.45880152    -0.44000
C1809       C  0.62739212  0.49164884  0.54242807    -0.00400
C1810       C  0.62719517  0.46183327  0.56328629    -0.12300
C1811       C  0.64732826  0.43183945  0.55598341     0.01800
C1812       C  0.66707568  0.43031274  0.52632161    -0.00500
C1813       C  0.66393539  0.45852395  0.50342796    -0.12200
C1814       C  0.64511984  0.48908775  0.51141285     0.01700
H1815       H  0.61412072  0.46301476  0.58742122     0.14700
H1816       H  0.67927130  0.45801054  0.48066448     0.14700
C1817       C  0.64655796  0.51801566  0.48834408     0.36300
C1818       C  0.65091554  0.40512876  0.58169656     0.36200
N1819       N  0.64807919  0.54114203  0.46983021    -0.44000
N1820       N  0.65388835  0.38404285  0.60266193    -0.44000
C1821       C  0.67674865  0.52871661  0.66245038    -0.00400
C1822       C  0.70887620  0.54620008  0.66387999    -0.12300
C1823       C  0.73834820  0.53399617  0.68353260     0.01800
C1824       C  0.73661306  0.50330153  0.70225030    -0.00500
C1825       C  0.70497471  0.48516989  0.70017639    -0.12200
C1826       C  0.67523542  0.49758494  0.68076672     0.01700
H1827       H  0.71082334  0.57036557  0.65027176     0.14700
H1828       H  0.70301126  0.46184685  0.71517535     0.14700
C1829       C  0.64371640  0.47797482  0.68035206     0.36300
C1830       C  0.76894273  0.55502930  0.68651705     0.36200
N1831       N  0.61850162  0.46215235  0.68029981    -0.44000
N1832       N  0.79341006  0.57193152  0.68921674    -0.44000
C1833       C  0.48561945  0.63627328  0.49637273    -0.00400
C1834       C  0.50977174  0.63345509  0.47011090    -0.12300
C1835       C  0.50297612  0.64893287  0.43754703     0.01800
C1836       C  0.47221499  0.66915948  0.43095637    -0.00500
C1837       C  0.44671586  0.66927750  0.45609731    -0.12200
C1838       C  0.45282893  0.65254142  0.48815624     0.01700
H1839       H  0.53465383  0.61999074  0.47544892     0.14700
H1840       H  0.42296717  0.68491421  0.45177825     0.14700
C1841       C  0.42607999  0.65474531  0.51303492     0.36300
C1842       C  0.52900725  0.64580768  0.41202085     0.36200
N1843       N  0.40438629  0.65643777  0.53274618    -0.44000
N1844       N  0.54953100  0.64306662  0.39121067    -0.44000
C1845       C  0.49623767  0.68379820  0.73366931    -0.00400
C1846       C  0.53023790  0.68078275  0.72164742    -0.12300
C1847       C  0.53699783  0.66512973  0.68948009     0.01800
C1848       C  0.50923824  0.65200142  0.66774974    -0.00500
C1849       C  0.47551025  0.65321226  0.68101398    -0.12200
C1850       C  0.46893754  0.66897175  0.71310907     0.01700
H1851       H  0.55139375  0.69304783  0.73632027     0.14700
H1852       H  0.45370931  0.64278993  0.66577686     0.14700
C1853       C  0.43327185  0.67186045  0.72350333     0.36300
C1854       C  0.57277385  0.66411177  0.67935661     0.36200
N1855       N  0.40473624  0.67434854  0.73194581    -0.44000
N1856       N  0.60157133  0.66351237  0.67154756    -0.44000
loop_ 
_geom_bond_atom_site_label_1 
_geom_bond_atom_site_label_2 
_geom_bond_distance 
_geom_bond_site_symmetry_2 
_ccdc_geom_bond_type 
O1           Ni7   1.897       .  S
O1           C22   1.265       .  A
O2          Ni25   1.887       .  S
O2           C11   1.262       .  A
O3           Ni7   1.901       .  S
O3          Ni25   1.889       .  S
O3          Ni19   1.948       .  S
O3           H26   0.966       .  S
C4           O21   1.301       .  A
C4           O13   1.281       .  A
C4         C1821   1.501       .  S
O5          Ni24   1.955       .  S
O5           C11   1.282       .  A
O6          Ni24   1.933       .  S
O6            C8   1.277       .  A
Ni7          O10   1.948       .  S
Ni7          O12   1.935       .  S
C8           O18   1.272       .  A
C8         C1809   1.507       .  S
O9          Ni25   1.939       .  S
O9           C15   1.278       .  A
O10          C15   1.279       .  A
C11        C1800   1.478       .  S
O12          C14   1.273       .  A
O13         Ni24   1.915       .  S
C14          O20   1.273       .  A
C14        C1848   1.526       .  S
C15        C1833   1.507       .  S
H16          O17   0.966       .  S
O17         Ni25   1.891       .  S
O17         Ni19   1.899       .  S
O17         Ni24   1.884       .  S
O18         Ni19   1.928       .  S
Ni19         O23   1.961       .  S
Ni19         O21   1.967       .  S
O20         Ni25   1.949       .  S
C22          O23   1.284       .  A
C22        C1785   1.488       .  S
O27         Ni33   1.911       .  S
O27          C48   1.269       .  A
O28         Ni51   1.892       .  S
O28          C37   1.262       .  A
O29         Ni33   1.904       .  S
O29         Ni51   1.899       .  S
O29         Ni45   1.943       .  S
O29          H52   0.965       .  S
C30          O47   1.301       .  A
C30          O39   1.281       .  A
C30        C1761   1.502       .  S
O31         Ni50   1.971       .  S
O31          C37   1.285       .  A
O32         Ni50   1.930       .  S
O32          C34   1.280       .  A
Ni33         O36   1.948       .  S
Ni33         O38   1.930       .  S
C34          O44   1.276       .  A
C34        C1725   1.508       .  S
O35         Ni51   1.937       .  S
O35          C41   1.277       .  A
O36          C41   1.279       .  A
C37        C1713   1.491       .  S
O38          C40   1.271       .  A
O39         Ni50   1.923       .  S
C40          O46   1.269       .  A
C40        C1773   1.511       .  S
C41        C1737   1.508   1_655  S
H42          O43   0.967       .  S
O43         Ni51   1.889       .  S
O43         Ni45   1.907       .  S
O43         Ni50   1.882       .  S
O44         Ni45   1.946       .  S
Ni45         O49   1.975       .  S
Ni45         O47   1.966       .  S
O46         Ni51   1.925       .  S
C48          O49   1.293       .  A
C48        C1749   1.510       .  S
O53         Ni59   1.895       .  S
O53          C74   1.263       .  A
O54         Ni77   1.888       .  S
O54          C63   1.261       .  A
O55         Ni59   1.903       .  S
O55         Ni77   1.891       .  S
O55         Ni71   1.947       .  S
O55          H78   0.967       .  S
C56          O73   1.303       .  A
C56          O65   1.282       .  A
C56        C1677   1.501       .  S
O57         Ni76   1.973       .  S
O57          C63   1.287       .  A
O58         Ni76   1.935       .  S
O58          C60   1.279       .  A
Ni59         O62   1.943       .  S
Ni59         O64   1.930       .  S
C60          O70   1.273       .  A
C60        C1641   1.506       .  S
O61         Ni77   1.932       .  S
O61          C67   1.276       .  A
O62          C67   1.279       .  A
C63        C1656   1.495       .  S
O64          C66   1.271       .  A
O65         Ni76   1.923       .  S
C66          O72   1.265       .  A
C66        C1701   1.508       .  S
C67        C1668   1.500       .  S
H68          O69   0.967       .  S
O69         Ni77   1.886       .  S
O69         Ni71   1.907       .  S
O69         Ni76   1.880       .  S
O70         Ni71   1.932       .  S
Ni71         O75   1.980       .  S
Ni71         O73   1.970       .  S
O72         Ni77   1.920       .  S
C74          O75   1.291       .  A
C74        C1689   1.500       .  S
C79         C507   1.523       .  S
C79          N80   1.378       .  A
C79          N84   1.382   1_554  A
N80          C81   1.373       .  A
C81        C1692   1.503       .  S
C81          N82   1.345   1_554  A
N82          C83   1.344       .  A
C83        C1629   1.494       .  S
C83          N84   1.376       .  A
C85        C1740   1.494       .  S
C85          N86   1.343       .  A
C85          N90   1.374       .  A
N86          C87   1.344       .  A
C87        C1665   1.493       .  S
C87          N88   1.375       .  A
N88          C89   1.381       .  A
C89         C657   1.526       .  S
C89          N90   1.382       .  A
O91         Ni97   1.887       .  S
O91         C112   1.260       .  A
O92        Ni115   1.869       .  S
O92         C101   1.261       .  A
O93         Ni97   1.888       .  S
O93        Ni115   1.876       .  S
O93        Ni109   1.943       .  S
O93         H116   0.966       .  S
C94         O111   1.303       .  A
C94         O103   1.283       .  A
C94        C1593   1.485       .  S
O95        Ni114   1.981       .  S
O95         C101   1.293       .  A
O96        Ni114   1.952       .  S
O96          C98   1.283       .  A
Ni97        O100   1.937       .  S
Ni97        O102   1.922       .  S
C98         O108   1.270       .  A
C98        C1632   1.511       .  S
O99        Ni115   1.926       .  S
O99         C105   1.276       .  A
O100        C105   1.279       .  A
C101       C1569   1.495       .  S
O102        C104   1.269       .  A
O103       Ni114   1.924       .  S
C104        O110   1.269       .  A
C104       C1617   1.507       .  S
C105       C1581   1.497       .  S
H106        O107   0.967       .  S
O107       Ni115   1.879       .  S
O107       Ni109   1.895       .  S
O107       Ni114   1.877       .  S
O108       Ni109   1.921       .  S
Ni109       O113   1.974       .  S
Ni109       O111   1.960       .  S
O110       Ni115   1.937       .  S
C112        O113   1.287       .  A
C112       C1605   1.491       .  S
O117       Ni123   1.887       .  S
O117        C138   1.262       .  A
O118       Ni141   1.887       .  S
O118        C127   1.263       .  A
O119       Ni123   1.897       .  S
O119       Ni141   1.887       .  S
O119       Ni135   1.935       .  S
O119        H142   0.967       .  S
C120        O137   1.298       .  A
C120        O129   1.280       .  A
C120       C1536   1.473       .  S
O121       Ni140   1.957       .  S
O121        C127   1.283       .  A
O122       Ni140   1.929       .  S
O122        C124   1.276       .  A
Ni123       O126   1.928       .  S
Ni123       O128   1.931       .  S
C124        O134   1.273       .  A
C124       C1500   1.510       .  S
O125       Ni141   1.920       .  S
O125        C131   1.274       .  A
O126        C131   1.277       .  A
C127       C1509   1.489       .  S
O128        C130   1.272       .  A
O129       Ni140   1.912       .  S
C130        O136   1.272       .  A
C130       C1557   1.518       .  S
C131       C1524   1.485       .  S
H132        O133   0.967       .  S
O133       Ni141   1.882       .  S
O133       Ni135   1.903       .  S
O133       Ni140   1.881       .  S
O134       Ni135   1.938       .  S
Ni135       O139   1.969       .  S
Ni135       O137   1.948       .  S
O136       Ni141   1.944       .  S
C138        O139   1.286       .  A
C138       C1545   1.497       .  S
C143       C1521   1.471       .  S
C143        N144   1.368       .  A
C143        N148   1.344       .  A
N144        C145   1.372       .  A
C145        C675   1.501       .  S
C145        N146   1.377       .  A
N146        C147   1.367       .  A
C147       C1584   1.483       .  S
C147        N148   1.340       .  A
C149       C1560   1.494       .  S
C149        N150   1.342       .  A
C149        N154   1.378       .  A
N150        C151   1.342       .  A
C151       C1620   1.480       .  S
C151        N152   1.367       .  A
N152        C153   1.376       .  A
C153        C405   1.521       .  S
C153        N154   1.384       .  A
C155        C541   1.516       .  S
C155        N156   1.381       .  A
C155        N160   1.377       .  A
N156        C157   1.375       .  A
C157       C1548   1.495       .  S
C157        N158   1.342       .  A
N158        C159   1.339       .  A
C159       C1488   1.497       .  S
C159        N160   1.370       .  A
C161       C1473   1.494       .  S
C161        N162   1.372       .  A
C161        N166   1.346   1_545  A
N162        C163   1.379   1_545  A
C163        C643   1.518       .  S
C163        N164   1.379       .  A
N164        C165   1.375       .  A
C165       C1461   1.499       .  S
C165        N166   1.348       .  A
C167        C663   1.506       .  S
C167        N168   1.377       .  A
C167        N172   1.379   1_556  A
N168        C169   1.367       .  A
C169       C1512   1.486       .  S
C169        N170   1.342   1_556  A
N170        C171   1.336       .  A
C171       C1449   1.485       .  S
C171        N172   1.371       .  A
C173        C647   1.522       .  S
C173        N174   1.381       .  A
C173        N178   1.384       .  A
N174        C175   1.373       .  A
C175       C1497   1.499       .  S
C175        N176   1.345       .  A
N176        C177   1.343       .  A
C177       C1437   1.513       .  S
C177        N178   1.376       .  A
C179        C669   1.510       .  S
C179        N180   1.376       .  A
C179        N184   1.378   1_565  A
N180        C181   1.369       .  A
C181       C1416   1.488       .  S
C181        N182   1.346   1_565  A
N182        C183   1.346       .  A
C183       C1428   1.488       .  S
C183        N184   1.372       .  A
C185        C629   1.520       .  S
C185        N186   1.380       .  A
C185        N190   1.382       .  A
N186        C187   1.372       .  A
C187       C1644   1.498       .  S
C187        N188   1.347       .  A
N188        C189   1.345       .  A
C189       C1401   1.502   1_655  S
C189        N190   1.375       .  A
C191        C625   1.502   1_455  S
C191        N192   1.376       .  A
C191        N196   1.379   1_455  A
N192        C193   1.366       .  A
C193       C1389   1.480       .  S
C193        N194   1.341       .  A
N194        C195   1.342   1_455  A
C195       C1653   1.490       .  S
C195        N196   1.370       .  A
O197       Ni203   1.901       .  S
O197        C218   1.265       .  A
O198       Ni221   1.883       .  S
O198        C207   1.261       .  A
O199       Ni203   1.899       .  S
O199       Ni221   1.893       .  S
O199       Ni215   1.947       .  S
O199        H222   0.966       .  S
C200        O217   1.304       .  A
C200        O209   1.282       .  A
C200       C1452   1.495       .  S
O201       Ni220   1.974       .  S
O201        C207   1.287       .  A
O202       Ni220   1.939       .  S
O202        C204   1.281       .  A
Ni203       O206   1.949       .  S
Ni203       O208   1.931       .  S
C204        O214   1.277       .  A
C204       C1404   1.510       .  S
O205       Ni221   1.937       .  S
O205        C211   1.277       .  A
O206        C211   1.279       .  A
C207       C1392   1.488       .  S
O208        C210   1.272       .  A
O209       Ni220   1.917       .  S
C210        O216   1.269       .  A
C210       C1425   1.512       .  S
C211       C1476   1.517       .  S
H212        O213   0.966       .  S
O213       Ni221   1.885       .  S
O213       Ni215   1.906       .  S
O213       Ni220   1.878       .  S
O214       Ni215   1.941       .  S
Ni215       O219   1.988       .  S
Ni215       O217   1.969       .  S
O216       Ni221   1.934       .  S
C218        O219   1.295       .  A
C218       C1440   1.511       .  S
O223       Ni229   1.890       .  S
O223        C244   1.260       .  A
O224       Ni247   1.888       .  S
O224        C233   1.265       .  A
O225       Ni229   1.893       .  S
O225       Ni247   1.887       .  S
O225       Ni241   1.924       .  S
O225        H248   0.956       .  S
C226        O243   1.297       .  A
C226        O235   1.279       .  A
C226       C1485   1.496       .  S
O227       Ni246   1.963       .  S
O227        C233   1.283       .  A
O228       Ni246   1.923       .  S
O228        C230   1.276       .  A
Ni229       O232   1.918       .  S
Ni229       O234   1.925       .  S
C230        O240   1.272       .  A
C230       C1368   1.488       .  S
O231       Ni247   1.941       .  S
O231        C237   1.281       .  A
O232        C237   1.278       .  A
C233       C1353   1.501       .  S
O234        C236   1.268       .  A
O235       Ni246   1.915       .  S
C236        O242   1.265       .  A
C236       C1341   1.493       .  S
C237       C1377   1.497       .  S
H238        O239   0.966       .  S
O239       Ni247   1.887       .  S
O239       Ni241   1.914       .  S
O239       Ni246   1.877       .  S
O240       Ni241   1.934       .  S
Ni241       O245   1.969       .  S
Ni241       O243   1.952       .  S
O242       Ni247   1.936       .  S
C244        O245   1.288       .  A
C244       C1329   1.500       .  S
O249       Ni255   1.909       .  S
O249        C270   1.267       .  A
O250       Ni273   1.908       .  S
O250        C259   1.268       .  A
O251       Ni255   1.904       .  S
O251       Ni273   1.902       .  S
O251       Ni267   1.937       .  S
O251        H274   0.966       .  S
C252        O269   1.296       .  A
C252        O261   1.281       .  A
C252       C1305   1.505       .  S
O253       Ni272   1.965       .  S
O253        C259   1.283       .  A
O254       Ni272   1.931       .  S
O254        C256   1.278       .  A
Ni255       O258   1.949       .  S
Ni255       O260   1.936       .  S
C256        O266   1.278       .  A
C256       C1464   1.506       .  S
O257       Ni273   1.938       .  S
O257        C263   1.279       .  A
O258        C263   1.279       .  A
C259       C1413   1.494       .  S
O260        C262   1.274       .  A
O261       Ni272   1.920       .  S
C262        O268   1.273       .  A
C262       C1317   1.527       .  S
C263       C1281   1.512       .  S
H264        O265   0.968       .  S
O265       Ni273   1.890       .  S
O265       Ni267   1.911       .  S
O265       Ni272   1.884       .  S
O266       Ni267   1.949       .  S
Ni267       O271   1.977       .  S
Ni267       O269   1.950       .  S
O268       Ni273   1.948       .  S
C270        O271   1.291       .  A
C270       C1293   1.508       .  S
C275        C597   1.525       .  S
C275        N276   1.386       .  A
C275        N280   1.379       .  A
N276        C277   1.379       .  A
C277       C1296   1.519       .  S
C277        N278   1.343       .  A
N278        C279   1.345       .  A
C279       C1728   1.497       .  S
C279        N280   1.371       .  A
C281       C1284   1.496       .  S
C281        N282   1.377       .  A
C281        N286   1.343       .  A
N282        C283   1.383       .  A
C283        C681   1.528       .  S
C283        N284   1.382       .  A
N284        C285   1.373       .  A
C285       C1344   1.492       .  S
C285        N286   1.344       .  A
C287       C1320   1.497       .  S
C287        N288   1.340       .  A
C287        N292   1.381       .  A
N288        C289   1.340       .  A
C289       C1380   1.476       .  S
C289        N290   1.364       .  A
N290        C291   1.376       .  A
C291        C475   1.521       .  S
C291        N292   1.386       .  A
C293        C689   1.517       .  S
C293        N294   1.377       .  A
C293        N298   1.381       .  A
N294        C295   1.373       .  A
C295       C1308   1.505   1_655  S
C295        N296   1.342       .  A
N296        C297   1.340       .  A
C297       C1716   1.488       .  S
C297        N298   1.372       .  A
C299        C701   1.509       .  S
C299        N300   1.374       .  A
C299        N304   1.383       .  A
N300        C301   1.363       .  A
C301       C1533   1.472   1_565  S
C301        N302   1.337       .  A
N302        C303   1.338       .  A
C303       C1332   1.489       .  S
C303        N304   1.377       .  A
C305        C697   1.517       .  S
C305        N306   1.384       .  A
C305        N310   1.377   1_554  A
N306        C307   1.378       .  A
C307       C1680   1.498       .  S
C307        N308   1.340       .  A
N308        C309   1.341   1_554  A
C309       C1572   1.483       .  S
C309        N310   1.366       .  A
C311        C443   1.519       .  S
C311        N312   1.374       .  A
C311        N316   1.386       .  A
N312        C313   1.369       .  A
C313       C1365   1.477       .  S
C313        N314   1.345       .  A
N314        C315   1.341       .  A
C315       C1845   1.500       .  S
C315        N316   1.376       .  A
C317        C633   1.512       .  S
C317        N318   1.372       .  A
C317        N322   1.384       .  A
N318        C319   1.366       .  A
C319       C1356   1.484       .  S
C319        N320   1.346       .  A
N320        C321   1.344       .  A
C321       C1836   1.500       .  S
C321        N322   1.376       .  A
C323        C615   1.502       .  S
C323        N324   1.369       .  A
C323        N328   1.382       .  A
N324        C325   1.359       .  A
C325       C1797   1.475       .  S
C325        N326   1.342       .  A
N326        C327   1.345       .  A
C327       C1764   1.509       .  S
C327        N328   1.380       .  A
C329        C609   1.503       .  S
C329        N330   1.374       .  A
C329        N334   1.378       .  A
N330        C331   1.367       .  A
C331       C1608   1.488       .  S
C331        N332   1.344       .  A
N332        C333   1.344       .  A
C333       C1788   1.495       .  S
C333        N334   1.370       .  A
C335        C605   1.505       .  S
C335        N336   1.377       .  A
C335        N340   1.374       .  A
N336        C337   1.371       .  A
C337       C1824   1.487       .  S
C337        N338   1.341       .  A
N338        C339   1.342       .  A
C339       C1596   1.474       .  S
C339        N340   1.366       .  A
C341        C651   1.525       .  S
C341        N342   1.382       .  A
C341        N346   1.380       .  A
N342        C343   1.378       .  A
C343       C1752   1.511       .  S
C343        N344   1.344       .  A
N344        C345   1.344       .  A
C345       C1812   1.497       .  S
C345        N346   1.373       .  A
C347       C1704   1.480       .  S
C347        N348   1.373       .  A
C347        N352   1.338       .  A
N348        C349   1.381       .  A
C349        C437   1.517       .  S
C349        N350   1.380       .  A
N350        C351   1.370       .  A
C351       C1776   1.482       .  S
C351        N352   1.336       .  A
O353       Ni359   1.956       .  S
O353        C374   1.282       .  A
O354       Ni377   1.975       .  S
O354        C363   1.293       .  A
O355       Ni359   1.881       .  S
O355       Ni377   1.912       .  S
O355       Ni371   1.896       .  S
O355        H378   0.966       .  S
C356        O373   1.282       .  A
C356        O365   1.279       .  A
C356       C1221   1.512       .  S
O357       Ni376   1.909       .  S
O357        C363   1.265       .  A
O358       Ni376   1.925       .  S
O358        C360   1.268       .  A
Ni359       O362   1.902       .  S
Ni359       O364   1.927       .  S
C360        O370   1.260       .  A
C360       C1233   1.477       .  S
O361       Ni377   1.970       .  S
O361        C367   1.300       .  A
O362        C367   1.276       .  A
C363       C1257   1.502       .  S
O364        C366   1.280       .  A
O365       Ni376   1.934       .  S
C366        O372   1.273       .  A
C366       C1245   1.485       .  S
C367       C1209   1.503       .  S
H368        O369   0.966       .  S
O369       Ni377   1.935       .  S
O369       Ni371   1.888       .  S
O369       Ni376   1.898       .  S
O370       Ni371   1.914       .  S
Ni371       O375   1.882       .  S
Ni371       O373   1.952       .  S
O372       Ni377   1.923       .  S
C374        O375   1.260       .  A
C374       C1269   1.494   1_455  S
O379       Ni385   1.968       .  S
O379        C400   1.285       .  A
O380       Ni403   1.971       .  S
O380        C389   1.291       .  A
O381       Ni385   1.879       .  S
O381       Ni403   1.904       .  S
O381       Ni397   1.897       .  S
O381        H404   0.966       .  S
C382        O399   1.287       .  A
C382        O391   1.281       .  A
C382       C1149   1.510       .  S
O383       Ni402   1.889       .  S
O383        C389   1.256       .  A
O384       Ni402   1.918       .  S
O384        C386   1.263       .  A
Ni385       O388   1.923       .  S
Ni385       O390   1.939       .  S
C386        O396   1.269       .  A
C386       C1137   1.491       .  S
O387       Ni403   1.973       .  S
O387        C393   1.304       .  A
O388        C393   1.280       .  A
C389       C1173   1.491       .  S
O390        C392   1.280       .  A
O391       Ni402   1.928       .  S
C392        O398   1.276       .  A
C392       C1164   1.506       .  S
C393       C1185   1.516       .  S
H394        O395   0.967       .  S
O395       Ni403   1.946       .  S
O395       Ni397   1.867       .  S
O395       Ni402   1.887       .  S
O396       Ni397   1.951       .  S
Ni397       O401   1.871       .  S
Ni397       O399   1.957       .  S
O398       Ni403   1.949       .  S
C400        O401   1.259       .  A
C400       C1200   1.470   1_545  S
C405        N406   1.383       .  A
C405        N410   1.382       .  A
N406        C407   1.376       .  A
C407       C1188   1.501       .  S
C407        N408   1.341       .  A
N408        C409   1.341       .  A
C409       C1128   1.496       .  S
C409        N410   1.371       .  A
O411       Ni417   1.981       .  S
O411        C432   1.290       .  A
O412       Ni435   1.966       .  S
O412        C421   1.287       .  A
O413       Ni417   1.878       .  S
O413       Ni435   1.892       .  S
O413       Ni429   1.874       .  S
O413        H436   0.967       .  S
C414        O431   1.276       .  A
C414        O423   1.278       .  A
C414       C1077   1.498       .  S
O415       Ni434   1.891       .  S
O415        C421   1.263       .  A
O416       Ni434   1.926       .  S
O416        C418   1.270       .  A
Ni417       O420   1.923       .  S
Ni417       O422   1.946       .  S
C418        O428   1.269       .  A
C418       C1101   1.512       .  S
O419       Ni435   1.962       .  S
O419        C425   1.304       .  A
O420        C425   1.284       .  A
C421       C1065   1.489       .  S
O422        C424   1.281       .  A
O423       Ni434   1.937       .  S
C424        O430   1.269       .  A
C424       C1125   1.512       .  S
C425       C1092   1.491       .  S
H426        O427   0.965       .  S
O427       Ni435   1.942       .  S
O427       Ni429   1.878       .  S
O427       Ni434   1.890       .  S
O428       Ni429   1.937       .  S
Ni429       O433   1.860       .  S
Ni429       O431   1.931       .  S
O430       Ni435   1.919       .  S
C432        O433   1.257       .  A
C432       C1113   1.477       .  S
C437        N438   1.381       .  A
C437        N442   1.379       .  A
N438        C439   1.375       .  A
C439       C1053   1.507       .  S
C439        N440   1.344       .  A
N440        C441   1.339       .  A
C441       C1080   1.486       .  S
C441        N442   1.370       .  A
C443        N444   1.390       .  A
C443        N448   1.371       .  A
N444        C445   1.383       .  A
C445       C1029   1.519       .  S
C445        N446   1.345       .  A
N446        C447   1.342       .  A
C447       C1041   1.477       .  S
C447        N448   1.363       .  A
O449       Ni455   1.958       .  S
O449        C470   1.282       .  A
O450       Ni473   1.968       .  S
O450        C459   1.291       .  A
O451       Ni455   1.890       .  S
O451       Ni473   1.912       .  S
O451       Ni467   1.898       .  S
O451        H474   0.968       .  S
C452        O469   1.283       .  A
C452        O461   1.278       .  A
C452       C1005   1.517       .  S
O453       Ni472   1.910       .  S
O453        C459   1.267       .  A
O454       Ni472   1.920       .  S
O454        C456   1.268       .  A
Ni455       O458   1.911       .  S
Ni455       O460   1.933       .  S
C456        O466   1.266       .  A
C456        C993   1.482       .  S
O457       Ni473   1.963       .  S
O457        C463   1.299       .  A
O458        C463   1.278       .  A
C459        C981   1.507       .  S
O460        C462   1.279       .  A
O461       Ni472   1.927       .  S
C462        O468   1.269       .  A
C462       C1017   1.479       .  S
C463       C1056   1.504       .  S
H464        O465   0.966       .  S
O465       Ni473   1.929       .  S
O465       Ni467   1.888       .  S
O465       Ni472   1.894       .  S
O466       Ni467   1.931       .  S
Ni467       O471   1.889       .  S
Ni467       O469   1.953       .  S
O468       Ni473   1.914       .  S
C470        O471   1.264       .  A
C470       C1044   1.498   1_554  S
C475        N476   1.380       .  A
C475        N480   1.385       .  A
N476        C477   1.367       .  A
C477       C1068   1.497       .  S
C477        N478   1.337       .  A
N478        C479   1.341       .  A
C479       C1212   1.509       .  S
C479        N480   1.380       .  A
O481       Ni487   1.965       .  S
O481        C502   1.282       .  A
O482       Ni505   2.005       .  S
O482        C491   1.299       .  A
O483       Ni487   1.883       .  S
O483       Ni505   1.916       .  S
O483       Ni499   1.890       .  S
O483        H506   0.966       .  S
C484        O501   1.278       .  A
C484        O493   1.278       .  A
C484        C945   1.491       .  S
O485       Ni504   1.893       .  S
O485        C491   1.261       .  A
O486       Ni504   1.924       .  S
O486        C488   1.268       .  A
Ni487       O490   1.925       .  S
Ni487       O492   1.923       .  S
C488        O498   1.271       .  A
C488        C969   1.507       .  S
O489       Ni505   1.972       .  S
O489        C495   1.305       .  A
O490        C495   1.283       .  A
C491       C1032   1.516   1_554  S
O492        C494   1.275       .  A
O493       Ni504   1.933       .  S
C494        O500   1.280       .  A
C494        C921   1.502       .  S
C495        C957   1.510       .  S
H496        O497   0.966       .  S
O497       Ni505   1.943       .  S
O497       Ni499   1.890       .  S
O497       Ni504   1.900       .  S
O498       Ni499   1.936       .  S
Ni499       O503   1.896       .  S
Ni499       O501   1.932       .  S
O500       Ni505   1.953       .  S
C502        O503   1.264       .  A
C502        C933   1.490       .  S
C507        N508   1.380   1_554  A
C507        N512   1.381       .  A
N508        C509   1.373   1_556  A
C509        C909   1.485   1_554  S
C509        N510   1.339       .  A
N510        C511   1.341       .  A
C511        C972   1.487       .  S
C511        N512   1.375       .  A
O513       Ni519   1.987       .  S
O513        C534   1.290       .  A
O514       Ni537   1.962       .  S
O514        C523   1.290       .  A
O515       Ni519   1.874       .  S
O515       Ni537   1.906       .  S
O515       Ni531   1.880       .  S
O515        H538   0.967       .  S
C516        O533   1.276       .  A
C516        O525   1.278       .  A
C516        C897   1.499       .  S
O517       Ni536   1.902       .  S
O517        C523   1.265       .  A
O518       Ni536   1.936       .  S
O518        C520   1.271       .  A
Ni519       O522   1.927       .  S
Ni519       O524   1.948       .  S
C520        O530   1.267       .  A
C520        C861   1.492       .  S
O521       Ni537   1.958       .  S
O521        C527   1.300       .  A
O522        C527   1.284       .  A
C523        C837   1.498       .  S
O524        C526   1.281       .  A
O525       Ni536   1.934       .  S
C526        O532   1.272       .  A
C526        C873   1.507       .  S
C527        C849   1.507       .  S
H528        O529   0.965       .  S
O529       Ni537   1.933       .  S
O529       Ni531   1.885       .  S
O529       Ni536   1.891       .  S
O530       Ni531   1.932       .  S
Ni531       O535   1.878       .  S
Ni531       O533   1.935       .  S
O532       Ni537   1.942       .  S
C534        O535   1.259       .  A
C534        C885   1.488   1_545  S
C539        C900   1.485   1_565  S
C539        N540   1.370       .  A
C539        N544   1.340       .  A
N540        C541   1.380       .  A
C541        N542   1.381       .  A
N542        C543   1.373       .  A
C543        C825   1.484       .  S
C543        N544   1.340       .  A
O545       Ni551   1.975       .  S
O545        C566   1.288       .  A
O546       Ni569   1.973       .  S
O546        C555   1.290       .  A
O547       Ni551   1.880       .  S
O547       Ni569   1.903       .  S
O547       Ni563   1.887       .  S
O547        H570   0.966       .  S
C548        O565   1.276       .  A
C548        O557   1.277       .  A
C548        C777   1.501       .  S
O549       Ni568   1.895       .  S
O549        C555   1.262       .  A
O550       Ni568   1.926       .  S
O550        C552   1.270       .  A
Ni551       O554   1.917       .  S
Ni551       O556   1.943       .  S
C552        O562   1.267       .  A
C552        C828   1.513       .  S
O553       Ni569   1.962       .  S
O553        C559   1.301       .  A
O554        C559   1.280       .  A
C555        C789   1.499       .  S
O556        C558   1.283       .  A
O557       Ni568   1.939       .  S
C558        O564   1.274       .  A
C558        C801   1.512   1_556  S
C559        C912   1.485       .  S
H560        O561   0.966       .  S
O561       Ni569   1.944       .  S
O561       Ni563   1.892       .  S
O561       Ni568   1.905       .  S
O562       Ni563   1.931       .  S
Ni563       O567   1.880       .  S
Ni563       O565   1.933       .  S
O564       Ni569   1.933       .  S
C566        O567   1.261       .  A
C566        C813   1.486       .  S
O571       Ni577   1.967       .  S
O571        C592   1.285       .  A
O572       Ni595   1.967       .  S
O572        C581   1.284       .  A
O573       Ni577   1.892       .  S
O573       Ni595   1.910       .  S
O573       Ni589   1.895       .  S
O573        H596   0.969       .  S
C574        O591   1.283       .  A
C574        O583   1.276   1_455  A
C574        C729   1.499       .  S
O575       Ni594   1.892       .  S
O575        C581   1.263       .  A
O576       Ni594   1.927       .  S
O576        C578   1.270       .  A
Ni577       O580   1.928       .  S
Ni577       O582   1.937       .  S
C578        O588   1.275       .  A
C578        C765   1.524       .  S
O579       Ni595   1.946       .  S
O579        C585   1.295       .  A
O580        C585   1.282       .  A
C581        C753   1.494   1_455  S
O582        C584   1.279       .  A
O583       Ni594   1.925   1_655  S
C584        O590   1.270       .  A
C584        C720   1.509       .  S
C585        C741   1.502       .  S
H586        O587   0.966       .  S
O587       Ni595   1.931       .  S
O587       Ni589   1.891       .  S
O587       Ni594   1.897       .  S
O588       Ni589   1.954       .  S
Ni589       O593   1.903       .  S
Ni589       O591   1.943       .  S
O590       Ni595   1.926       .  S
C592        O593   1.267       .  A
C592        C705   1.497       .  S
C597        N598   1.379       .  A
C597        N602   1.385   1_655  A
N598        C599   1.372       .  A
C599        C816   1.480       .  S
C599        N600   1.340       .  A
N600        C601   1.339   1_655  A
C601        C768   1.495       .  S
C601        N602   1.377       .  A
C603       C1272   1.482       .  S
C603        N604   1.367       .  A
C603        N608   1.344       .  A
N604        C605   1.374       .  A
C605        N606   1.377       .  A
N606        C607   1.370       .  A
C607        C756   1.493       .  S
C607        N608   1.342       .  A
C609        N610   1.372       .  A
C609        N614   1.377       .  A
N610        C611   1.364       .  A
C611       C1248   1.473       .  S
C611        N612   1.342       .  A
N612        C613   1.345       .  A
C613        C744   1.501       .  S
C613        N614   1.371       .  A
C615        N616   1.383       .  A
C615        N620   1.373       .  A
N616        C617   1.377       .  A
C617        C888   1.489       .  S
C617        N618   1.340       .  A
N618        C619   1.337       .  A
C619       C1197   1.473       .  S
C619        N620   1.360       .  A
C621       C1236   1.478       .  S
C621        N622   1.344       .  A
C621        N626   1.367       .  A
N622        C623   1.340       .  A
C623        C852   1.481       .  S
C623        N624   1.369       .  A
N624        C625   1.376       .  A
C625        N626   1.374       .  A
C627        C840   1.493       .  S
C627        N628   1.374       .  A
C627        N632   1.342       .  A
N628        C629   1.381       .  A
C629        N630   1.381   1_655  A
N630        C631   1.373       .  A
C631       C1224   1.490       .  S
C631        N632   1.341   1_455  A
C633        N634   1.373       .  A
C633        N638   1.383       .  A
N634        C635   1.366       .  A
C635       C1020   1.472       .  S
C635        N636   1.341       .  A
N636        C637   1.342       .  A
C637        C960   1.505       .  S
C637        N638   1.375       .  A
C639       C1152   1.493       .  S
C639        N640   1.342   1_545  A
C639        N644   1.376       .  A
N640        C641   1.343       .  A
C641        C936   1.487       .  S
C641        N642   1.369       .  A
N642        C643   1.377       .  A
C643        N644   1.383   1_565  A
C645       C1008   1.493   1_556  S
C645        N646   1.375       .  A
C645        N650   1.342       .  A
N646        C647   1.383       .  A
C647        N648   1.380       .  A
N648        C649   1.372       .  A
C649        C708   1.491       .  S
C649        N650   1.343       .  A
C651        N652   1.384       .  A
C651        N656   1.384       .  A
N652        C653   1.375       .  A
C653       C1161   1.509       .  S
C653        N654   1.344       .  A
N654        C655   1.344       .  A
C655        C876   1.507       .  S
C655        N656   1.376       .  A
C657        N658   1.379       .  A
C657        N662   1.385       .  A
N658        C659   1.371       .  A
C659       C1104   1.486       .  S
C659        N660   1.341       .  A
N660        C661   1.343       .  A
C661        C984   1.503       .  S
C661        N662   1.378       .  A
C663        N664   1.378       .  A
C663        N668   1.376       .  A
N664        C665   1.371       .  A
C665        C717   1.491       .  S
C665        N666   1.344       .  A
N666        C667   1.343       .  A
C667        C996   1.485       .  S
C667        N668   1.366       .  A
C669        N670   1.376       .  A
C669        N674   1.376   1_565  A
N670        C671   1.372       .  A
C671        C924   1.494       .  S
C671        N672   1.349       .  A
N672        C673   1.349       .  A
C673       C1140   1.493   1_565  S
C673        N674   1.370   1_565  A
C675        N676   1.384       .  A
C675        N680   1.371       .  A
N676        C677   1.376       .  A
C677       C1176   1.491       .  S
C677        N678   1.338       .  A
N678        C679   1.334       .  A
C679       C1116   1.466       .  S
C679        N680   1.359       .  A
C681        N682   1.382       .  A
C681        N686   1.385       .  A
N682        C683   1.374       .  A
C683       C1089   1.493       .  S
C683        N684   1.338       .  A
N684        C685   1.340       .  A
C685       C1260   1.499       .  S
C685        N686   1.378       .  A
C687        C732   1.483       .  S
C687        N688   1.369       .  A
C687        N692   1.339       .  A
N688        C689   1.378       .  A
C689        N690   1.384       .  A
N690        C691   1.376       .  A
C691        C804   1.497       .  S
C691        N692   1.342       .  A
C693        C948   1.485       .  S
C693        N694   1.339       .  A
C693        N698   1.367       .  A
N694        C695   1.344       .  A
C695        C792   1.505       .  S
C695        N696   1.377       .  A
N696        C697   1.382       .  A
C697        N698   1.378       .  A
C699        C864   1.492       .  S
C699        N700   1.375       .  A
C699        N704   1.346       .  A
N700        C701   1.380       .  A
C701        N702   1.376       .  A
N702        C703   1.365       .  A
C703        C780   1.484       .  S
C703        N704   1.341       .  A
C705        C706   1.401       .  A
C705        C710   1.419       .  A
C706        C707   1.405       .  A
C706        H711   1.084       .  S
C707        C708   1.419       .  A
C707        C714   1.445   1_556  S
C708        C709   1.405       .  A
C709        C710   1.414       .  A
C709        H712   1.084       .  S
C710        C713   1.444       .  S
C713        N715   1.157       .  T
C714        N716   1.157       .  T
C717        C718   1.398       .  A
C717        C722   1.420   1_556  A
C718        C719   1.409       .  A
C718        H723   1.085       .  S
C719        C720   1.429       .  A
C719        C726   1.444       .  S
C720        C721   1.405       .  A
C721        C722   1.406   1_556  A
C721        H724   1.084   1_556  S
C722        C725   1.446       .  S
C725        N727   1.157       .  T
C726        N728   1.157       .  T
C729        C730   1.405   1_455  A
C729        C734   1.419   1_556  A
C730        C731   1.409   1_556  A
C730        H735   1.084       .  S
C731        C732   1.417       .  A
C731        C738   1.445       .  S
C732        C733   1.402   1_655  A
C733        C734   1.408       .  A
C733        H736   1.085       .  S
C734        C737   1.443       .  S
C737        N739   1.157       .  T
C738        N740   1.157       .  T
C741        C742   1.419       .  A
C741        C746   1.408       .  A
C742        C743   1.406       .  A
C742        H747   1.084       .  S
C743        C744   1.408       .  A
C743        C750   1.443       .  S
C744        C745   1.418       .  A
C745        C746   1.404       .  A
C745        H748   1.084       .  S
C746        C749   1.444       .  S
C749        N751   1.157       .  T
C750        N752   1.157       .  T
C753        C754   1.400   1_655  A
C753        C758   1.423       .  A
C754        C755   1.409   1_455  A
C754        H759   1.084       .  S
C755        C756   1.425       .  A
C755        C762   1.445       .  S
C756        C757   1.396       .  A
C757        C758   1.403       .  A
C757        H760   1.085       .  S
C758        C761   1.444       .  S
C761        N763   1.157       .  T
C762        N764   1.157       .  T
C765        C766   1.413       .  A
C765        C770   1.426   1_455  A
C766        C767   1.415       .  A
C766        H771   1.084       .  S
C767        C768   1.415       .  A
C767        C774   1.444       .  S
C768        C769   1.405   1_455  A
C769        C770   1.414       .  A
C769        H772   1.085       .  S
C770        C773   1.444       .  S
C773        N775   1.157       .  T
C774        N776   1.157       .  T
C777        C778   1.411   1_655  A
C777        C782   1.414   1_655  A
C778        C779   1.407       .  A
C778        H783   1.085       .  S
C779        C780   1.409       .  A
C779        C786   1.444       .  S
C780        C781   1.409   1_565  A
C781        C782   1.410   1_545  A
C781        H784   1.085       .  S
C782        C785   1.443   1_465  S
C785        N787   1.157       .  T
C786        N788   1.157       .  T
C789        C790   1.418   1_565  A
C789        C794   1.404   1_556  A
C790        C791   1.409       .  A
C790        H795   1.085       .  S
C791        C792   1.407   1_556  A
C791        C798   1.443       .  S
C792        C793   1.421       .  A
C793        C794   1.408   1_545  A
C793        H796   1.085       .  S
C794        C797   1.443       .  S
C797        N799   1.157       .  T
C798        N800   1.157       .  T
C801        C802   1.419       .  A
C801        C806   1.411       .  A
C802        C803   1.415       .  A
C802        H807   1.084       .  S
C803        C804   1.409       .  A
C803        C810   1.443       .  S
C804        C805   1.413       .  A
C805        C806   1.408       .  A
C805        H808   1.085   1_655  S
C806        C809   1.443   1_654  S
C809        N811   1.157       .  T
C810        N812   1.157       .  T
C813        C814   1.404       .  A
C813        C818   1.411       .  A
C814        C815   1.410       .  A
C814        H819   1.085       .  S
C815        C816   1.415       .  A
C815        C822   1.443   1_655  S
C816        C817   1.406       .  A
C817        C818   1.405       .  A
C817        H820   1.085       .  S
C818        C821   1.444       .  S
C821        N823   1.157       .  T
C822        N824   1.157       .  T
C825        C826   1.405       .  A
C825        C830   1.412       .  A
C826        C827   1.410       .  A
C826        H831   1.085       .  S
C827        C828   1.423       .  A
C827        C834   1.444       .  S
C828        C829   1.412       .  A
C829        C830   1.411       .  A
C829        H832   1.084       .  S
C830        C833   1.444   1_565  S
C833        N835   1.157       .  T
C834        N836   1.157       .  T
C837        C838   1.399       .  A
C837        C842   1.426       .  A
C838        C839   1.404       .  A
C838        H843   1.085       .  S
C839        C840   1.421       .  A
C839        C846   1.445       .  S
C840        C841   1.402       .  A
C841        C842   1.412       .  A
C841        H844   1.085       .  S
C842        C845   1.446       .  S
C845        N847   1.158   1_655  T
C846        N848   1.157       .  T
C849        C850   1.407       .  A
C849        C854   1.429       .  A
C850        C851   1.413   1_655  A
C850        H855   1.084       .  S
C851        C852   1.419   1_455  A
C851        C858   1.444       .  S
C852        C853   1.394       .  A
C853        C854   1.400       .  A
C853        H856   1.086       .  S
C854        C857   1.446       .  S
C857        N859   1.157       .  T
C858        N860   1.157       .  T
C861        C862   1.399   1_545  A
C861        C866   1.416   1_655  A
C862        C863   1.407   1_655  A
C862        H867   1.085       .  S
C863        C864   1.420       .  A
C863        C870   1.443       .  S
C864        C865   1.404   1_565  A
C865        C866   1.412       .  A
C865        H868   1.084       .  S
C866        C869   1.443   1_455  S
C869        N871   1.157       .  T
C870        N872   1.157       .  T
C873        C874   1.417       .  A
C873        C878   1.407       .  A
C874        C875   1.420       .  A
C874        H879   1.084       .  S
C875        C876   1.412       .  A
C875        C882   1.442       .  S
C876        C877   1.415       .  A
C877        C878   1.407       .  A
C877        H880   1.085       .  S
C878        C881   1.443       .  S
C881        N883   1.157       .  T
C882        N884   1.157       .  T
C885        C886   1.410       .  A
C885        C890   1.407       .  A
C886        C887   1.413       .  A
C886        H891   1.084       .  S
C887        C888   1.410       .  A
C887        C894   1.442       .  S
C888        C889   1.414       .  A
C889        C890   1.404       .  A
C889        H892   1.085       .  S
C890        C893   1.445   1_565  S
C893        N895   1.157       .  T
C894        N896   1.157       .  T
C897        C898   1.410       .  A
C897        C902   1.414   1_545  A
C898        C899   1.410       .  A
C898        H903   1.084       .  S
C899        C900   1.408       .  A
C899        C906   1.442       .  S
C900        C901   1.410   1_545  A
C901        C902   1.408       .  A
C901        H904   1.085       .  S
C902        C905   1.444       .  S
C905        N907   1.157       .  T
C906        N908   1.157       .  T
C909        C910   1.399       .  A
C909        C914   1.423   1_556  A
C910        C911   1.404       .  A
C910        H915   1.085       .  S
C911        C912   1.418       .  A
C911        C918   1.444       .  S
C912        C913   1.400       .  A
C913        C914   1.409   1_556  A
C913        H916   1.085   1_556  S
C914        C917   1.444       .  S
C917        N919   1.157       .  T
C918        N920   1.157       .  T
C921        C922   1.411       .  A
C921        C926   1.414       .  A
C922        C923   1.410       .  A
C922        H927   1.085       .  S
C923        C924   1.411       .  A
C923        C930   1.443       .  S
C924        C925   1.410       .  A
C925        C926   1.409       .  A
C925        H928   1.085   1_565  S
C926        C929   1.444   1_565  S
C929        N931   1.157       .  T
C930        N932   1.157       .  T
C933        C934   1.401       .  A
C933        C938   1.417       .  A
C934        C935   1.404       .  A
C934        H939   1.085       .  S
C935        C936   1.418       .  A
C935        C942   1.446   1_565  S
C936        C937   1.404       .  A
C937        C938   1.411       .  A
C937        H940   1.084       .  S
C938        C941   1.444       .  S
C941        N943   1.157       .  T
C942        N944   1.157       .  T
C945        C946   1.401   1_554  A
C945        C950   1.417   1_565  A
C946        C947   1.407   1_565  A
C946        H951   1.085       .  S
C947        C948   1.420   1_556  A
C947        C954   1.445       .  S
C948        C949   1.402       .  A
C949        C950   1.408       .  A
C949        H952   1.085       .  S
C950        C953   1.444       .  S
C953        N955   1.157       .  T
C954        N956   1.157       .  T
C957        C958   1.422       .  A
C957        C962   1.405       .  A
C958        C959   1.413       .  A
C958        H963   1.084       .  S
C959        C960   1.407       .  A
C959        C966   1.443       .  S
C960        C961   1.417       .  A
C961        C962   1.407       .  A
C961        H964   1.085       .  S
C962        C965   1.438       .  S
C965        N967   1.155       .  T
C966        N968   1.157       .  T
C969        C970   1.406       .  A
C969        C974   1.424       .  A
C970        C971   1.405       .  A
C970        H975   1.085       .  S
C971        C972   1.415       .  A
C971        C978   1.444       .  S
C972        C973   1.405       .  A
C973        C974   1.413       .  A
C973        H976   1.085   1_554  S
C974        C977   1.444   1_554  S
C977        N979   1.158       .  T
C978        N980   1.157       .  T
C981        C982   1.418       .  A
C981        C986   1.410       .  A
C982        C983   1.416       .  A
C982        H987   1.084       .  S
C983        C984   1.409       .  A
C983        C990   1.442       .  S
C984        C985   1.414       .  A
C985        C986   1.407       .  A
C985        H988   1.085       .  S
C986        C989   1.443       .  S
C989        N991   1.157       .  T
C990        N992   1.157       .  T
C993        C994   1.397   1_554  A
C993        C998   1.418       .  A
C994        C995   1.401       .  A
C994        H999   1.085       .  S
C995        C996   1.420       .  A
C995       C1002   1.445       .  S
C996        C997   1.402   1_556  A
C997        C998   1.408       .  A
C997       H1000   1.085       .  S
C998       C1001   1.444       .  S
C1001      N1003   1.157       .  T
C1002      N1004   1.157       .  T
C1005      C1006   1.413       .  A
C1005      C1010   1.424       .  A
C1006      C1007   1.416   1_554  A
C1006      H1011   1.084   1_554  S
C1007      C1008   1.414   1_556  A
C1007      C1014   1.442       .  S
C1008      C1009   1.404       .  A
C1009      C1010   1.407       .  A
C1009      H1012   1.085       .  S
C1010      C1013   1.445       .  S
C1013      N1015   1.158       .  T
C1014      N1016   1.157       .  T
C1017      C1018   1.401       .  A
C1017      C1022   1.413       .  A
C1018      C1019   1.401       .  A
C1018      H1023   1.085       .  S
C1019      C1020   1.412       .  A
C1019      C1026   1.444       .  S
C1020      C1021   1.405       .  A
C1021      C1022   1.406       .  A
C1021      H1024   1.085       .  S
C1022      C1025   1.444       .  S
C1025      N1027   1.157       .  T
C1026      N1028   1.157       .  T
C1029      C1030   1.421       .  A
C1029      C1034   1.408       .  A
C1030      C1031   1.412       .  A
C1030      H1035   1.085       .  S
C1031      C1032   1.407       .  A
C1031      C1038   1.438   1_556  S
C1032      C1033   1.424       .  A
C1033      C1034   1.418       .  A
C1033      H1036   1.085       .  S
C1034      C1037   1.442       .  S
C1037      N1039   1.157       .  T
C1038      N1040   1.156       .  T
C1041      C1042   1.407       .  A
C1041      C1046   1.406       .  A
C1042      C1043   1.403       .  A
C1042      H1047   1.085       .  S
C1043      C1044   1.415       .  A
C1043      C1050   1.444   1_556  S
C1044      C1045   1.413       .  A
C1045      C1046   1.404       .  A
C1045      H1048   1.084       .  S
C1046      C1049   1.444       .  S
C1049      N1051   1.157       .  T
C1050      N1052   1.157       .  T
C1053      C1054   1.421       .  A
C1053      C1058   1.407       .  A
C1054      C1055   1.404       .  A
C1054      H1059   1.084       .  S
C1055      C1056   1.405       .  A
C1055      C1062   1.444       .  S
C1056      C1057   1.422       .  A
C1057      C1058   1.410       .  A
C1057      H1060   1.084       .  S
C1058      C1061   1.444       .  S
C1061      N1063   1.158       .  T
C1062      N1064   1.157       .  T
C1065      C1066   1.416       .  A
C1065      C1070   1.403       .  A
C1066      C1067   1.405       .  A
C1066      H1071   1.085       .  S
C1067      C1068   1.406       .  A
C1067      C1074   1.443       .  S
C1068      C1069   1.420       .  A
C1069      C1070   1.406       .  A
C1069      H1072   1.085       .  S
C1070      C1073   1.444       .  S
C1073      N1075   1.157       .  T
C1074      N1076   1.157       .  T
C1077      C1078   1.410       .  A
C1077      C1082   1.410       .  A
C1078      C1079   1.408       .  A
C1078      H1083   1.085       .  S
C1079      C1080   1.411       .  A
C1079      C1086   1.444       .  S
C1080      C1081   1.412       .  A
C1081      C1082   1.410       .  A
C1081      H1084   1.085       .  S
C1082      C1085   1.443       .  S
C1085      N1087   1.157       .  T
C1086      N1088   1.157       .  T
C1089      C1090   1.419       .  A
C1089      C1094   1.406       .  A
C1090      C1091   1.409       .  A
C1090      H1095   1.085       .  S
C1091      C1092   1.404       .  A
C1091      C1098   1.444       .  S
C1092      C1093   1.414       .  A
C1093      C1094   1.406       .  A
C1093      H1096   1.085       .  S
C1094      C1097   1.442       .  S
C1097      N1099   1.157       .  T
C1098      N1100   1.157       .  T
C1101      C1102   1.410       .  A
C1101      C1106   1.423       .  A
C1102      C1103   1.406       .  A
C1102      H1107   1.084       .  S
C1103      C1104   1.413       .  A
C1103      C1110   1.444       .  S
C1104      C1105   1.404       .  A
C1105      C1106   1.412       .  A
C1105      H1108   1.085       .  S
C1106      C1109   1.442       .  S
C1109      N1111   1.157       .  T
C1110      N1112   1.157       .  T
C1113      C1114   1.399       .  A
C1113      C1118   1.417       .  A
C1114      C1115   1.402       .  A
C1114      H1119   1.085       .  S
C1115      C1116   1.417       .  A
C1115      C1122   1.444       .  S
C1116      C1117   1.398       .  A
C1117      C1118   1.399       .  A
C1117      H1120   1.086       .  S
C1118      C1121   1.444       .  S
C1121      N1123   1.157       .  T
C1122      N1124   1.157       .  T
C1125      C1126   1.421       .  A
C1125      C1130   1.413       .  A
C1126      C1127   1.412       .  A
C1126      H1131   1.084       .  S
C1127      C1128   1.406       .  A
C1127      C1134   1.443       .  S
C1128      C1129   1.413       .  A
C1129      C1130   1.407       .  A
C1129      H1132   1.085       .  S
C1130      C1133   1.443       .  S
C1133      N1135   1.157       .  T
C1134      N1136   1.157       .  T
C1137      C1138   1.409       .  A
C1137      C1142   1.408   1_545  A
C1138      C1139   1.409       .  A
C1138      H1143   1.083       .  S
C1139      C1140   1.411       .  A
C1139      C1146   1.443       .  S
C1140      C1141   1.411   1_545  A
C1141      C1142   1.407       .  A
C1141      H1144   1.085       .  S
C1142      C1145   1.443       .  S
C1145      N1147   1.157       .  T
C1146      N1148   1.157       .  T
C1149      C1150   1.412       .  A
C1149      C1154   1.416       .  A
C1150      C1151   1.413       .  A
C1150      H1155   1.084       .  S
C1151      C1152   1.414       .  A
C1151      C1158   1.444       .  S
C1152      C1153   1.409       .  A
C1153      C1154   1.411       .  A
C1153      H1156   1.085   1_545  S
C1154      C1157   1.444   1_545  S
C1157      N1159   1.157       .  T
C1158      N1160   1.157       .  T
C1161      C1162   1.406       .  A
C1161      C1166   1.425       .  A
C1162      C1163   1.419       .  A
C1162      H1167   1.084       .  S
C1163      C1164   1.424       .  A
C1163      C1170   1.443       .  S
C1164      C1165   1.399       .  A
C1165      C1166   1.405       .  A
C1165      H1168   1.085       .  S
C1166      C1169   1.446       .  S
C1169      N1171   1.157       .  T
C1170      N1172   1.157       .  T
C1173      C1174   1.418       .  A
C1173      C1178   1.405       .  A
C1174      C1175   1.411       .  A
C1174      H1179   1.085       .  S
C1175      C1176   1.408       .  A
C1175      C1182   1.443       .  S
C1176      C1177   1.416       .  A
C1177      C1178   1.403       .  A
C1177      H1180   1.085       .  S
C1178      C1181   1.443       .  S
C1181      N1183   1.157       .  T
C1182      N1184   1.157       .  T
C1185      C1186   1.401       .  A
C1185      C1190   1.436       .  A
C1186      C1187   1.410       .  A
C1186      H1191   1.084       .  S
C1187      C1188   1.427       .  A
C1187      C1194   1.446       .  S
C1188      C1189   1.395       .  A
C1189      C1190   1.409       .  A
C1189      H1192   1.085       .  S
C1190      C1193   1.446       .  S
C1193      N1195   1.158       .  T
C1194      N1196   1.158       .  T
C1197      C1198   1.407       .  A
C1197      C1202   1.410       .  A
C1198      C1199   1.396       .  A
C1198      H1203   1.086       .  S
C1199      C1200   1.405       .  A
C1199      C1206   1.445   1_565  S
C1200      C1201   1.406       .  A
C1201      C1202   1.407       .  A
C1201      H1204   1.085       .  S
C1202      C1205   1.443       .  S
C1205      N1207   1.157       .  T
C1206      N1208   1.157       .  T
C1209      C1210   1.423       .  A
C1209      C1214   1.404       .  A
C1210      C1211   1.409       .  A
C1210      H1215   1.085       .  S
C1211      C1212   1.405       .  A
C1211      C1218   1.442       .  S
C1212      C1213   1.425       .  A
C1213      C1214   1.405       .  A
C1213      H1216   1.085       .  S
C1214      C1217   1.444       .  S
C1217      N1219   1.158       .  T
C1218      N1220   1.157       .  T
C1221      C1222   1.412       .  A
C1221      C1226   1.418       .  A
C1222      C1223   1.412       .  A
C1222      H1227   1.084       .  S
C1223      C1224   1.411       .  A
C1223      C1230   1.444       .  S
C1224      C1225   1.409   1_455  A
C1225      C1226   1.411   1_655  A
C1225      H1228   1.085       .  S
C1226      C1229   1.443   1_455  S
C1229      N1231   1.157       .  T
C1230      N1232   1.157       .  T
C1233      C1234   1.396   1_455  A
C1233      C1238   1.417       .  A
C1234      C1235   1.401       .  A
C1234      H1239   1.085       .  S
C1235      C1236   1.419       .  A
C1235      C1242   1.445       .  S
C1236      C1237   1.397   1_655  A
C1237      C1238   1.403       .  A
C1237      H1240   1.085       .  S
C1238      C1241   1.441       .  S
C1241      N1243   1.156       .  T
C1242      N1244   1.157       .  T
C1245      C1246   1.406       .  A
C1245      C1250   1.414       .  A
C1246      C1247   1.406       .  A
C1246      H1251   1.085       .  S
C1247      C1248   1.411       .  A
C1247      C1254   1.443       .  S
C1248      C1249   1.404       .  A
C1249      C1250   1.402       .  A
C1249      H1252   1.085       .  S
C1250      C1253   1.445       .  S
C1253      N1255   1.157       .  T
C1254      N1256   1.157       .  T
C1257      C1258   1.419       .  A
C1257      C1262   1.407       .  A
C1258      C1259   1.416       .  A
C1258      H1263   1.085       .  S
C1259      C1260   1.409       .  A
C1259      C1266   1.443       .  S
C1260      C1261   1.415       .  A
C1261      C1262   1.406       .  A
C1261      H1264   1.085       .  S
C1262      C1265   1.443       .  S
C1265      N1267   1.157       .  T
C1266      N1268   1.157       .  T
C1269      C1270   1.400       .  A
C1269      C1274   1.424       .  A
C1270      C1271   1.398       .  A
C1270      H1275   1.084   1_655  S
C1271      C1272   1.419       .  A
C1271      C1278   1.446       .  S
C1272      C1273   1.399       .  A
C1273      C1274   1.406       .  A
C1273      H1276   1.085       .  S
C1274      C1277   1.445       .  S
C1277      N1279   1.158       .  T
C1278      N1280   1.157       .  T
C1281      C1282   1.408       .  A
C1281      C1286   1.419   1_565  A
C1282      C1283   1.417   1_565  A
C1282      H1287   1.084       .  S
C1283      C1284   1.418       .  A
C1283      C1290   1.443       .  S
C1284      C1285   1.404       .  A
C1285      C1286   1.411       .  A
C1285      H1288   1.085       .  S
C1286      C1289   1.443       .  S
C1289      N1291   1.157   1_545  T
C1290      N1292   1.157       .  T
C1293      C1294   1.399   1_455  A
C1293      C1298   1.425       .  A
C1294      C1295   1.413       .  A
C1294      H1299   1.085       .  S
C1295      C1296   1.435       .  A
C1295      C1302   1.446       .  S
C1296      C1297   1.402   1_655  A
C1297      C1298   1.412       .  A
C1297      H1300   1.084       .  S
C1298      C1301   1.444       .  S
C1301      N1303   1.157       .  T
C1302      N1304   1.158       .  T
C1305      C1306   1.421       .  A
C1305      C1310   1.408       .  A
C1306      C1307   1.405       .  A
C1306      H1311   1.084       .  S
C1307      C1308   1.406       .  A
C1307      C1314   1.443       .  S
C1308      C1309   1.422       .  A
C1309      C1310   1.404       .  A
C1309      H1312   1.084   1_455  S
C1310      C1313   1.445       .  S
C1313      N1315   1.158       .  T
C1314      N1316   1.157       .  T
C1317      C1318   1.413       .  A
C1317      C1322   1.426       .  A
C1318      C1319   1.414       .  A
C1318      H1323   1.084       .  S
C1319      C1320   1.415       .  A
C1319      C1326   1.444       .  S
C1320      C1321   1.407       .  A
C1321      C1322   1.417       .  A
C1321      H1324   1.085       .  S
C1322      C1325   1.442       .  S
C1325      N1327   1.157       .  T
C1326      N1328   1.157       .  T
C1329      C1330   1.400       .  A
C1329      C1334   1.426       .  A
C1330      C1331   1.406       .  A
C1330      H1335   1.085       .  S
C1331      C1332   1.423       .  A
C1331      C1338   1.445       .  S
C1332      C1333   1.400       .  A
C1333      C1334   1.410       .  A
C1333      H1336   1.085       .  S
C1334      C1337   1.444       .  S
C1337      N1339   1.157       .  T
C1338      N1340   1.157       .  T
C1341      C1342   1.409       .  A
C1341      C1346   1.406       .  A
C1342      C1343   1.410   1_565  A
C1342      H1347   1.084       .  S
C1343      C1344   1.411       .  A
C1343      C1350   1.443       .  S
C1344      C1345   1.414       .  A
C1345      C1346   1.410   1_545  A
C1345      H1348   1.085       .  S
C1346      C1349   1.443       .  S
C1349      N1351   1.157       .  T
C1350      N1352   1.157       .  T
C1353      C1354   1.416       .  A
C1353      C1358   1.415       .  A
C1354      C1355   1.407       .  A
C1354      H1359   1.084       .  S
C1355      C1356   1.406       .  A
C1355      C1362   1.443       .  S
C1356      C1357   1.407       .  A
C1357      C1358   1.401       .  A
C1357      H1360   1.086       .  S
C1358      C1361   1.444       .  S
C1361      N1363   1.157       .  T
C1362      N1364   1.157       .  T
C1365      C1366   1.406       .  A
C1365      C1370   1.412       .  A
C1366      C1367   1.411       .  A
C1366      H1371   1.085       .  S
C1367      C1368   1.416       .  A
C1367      C1374   1.444       .  S
C1368      C1369   1.403       .  A
C1369      C1370   1.399       .  A
C1369      H1372   1.085       .  S
C1370      C1373   1.445       .  S
C1373      N1375   1.157       .  T
C1374      N1376   1.157       .  T
C1377      C1378   1.409       .  A
C1377      C1382   1.414       .  A
C1378      C1379   1.403       .  A
C1378      H1383   1.085       .  S
C1379      C1380   1.409       .  A
C1379      C1386   1.445       .  S
C1380      C1381   1.407       .  A
C1381      C1382   1.408       .  A
C1381      H1384   1.085       .  S
C1382      C1385   1.442       .  S
C1385      N1387   1.157       .  T
C1386      N1388   1.157       .  T
C1389      C1390   1.408       .  A
C1389      C1394   1.409       .  A
C1390      C1391   1.402       .  A
C1390      H1395   1.085   1_455  S
C1391      C1392   1.408       .  A
C1391      C1398   1.442   1_455  S
C1392      C1393   1.411       .  A
C1393      C1394   1.408       .  A
C1393      H1396   1.085       .  S
C1394      C1397   1.443       .  S
C1397      N1399   1.157       .  T
C1398      N1400   1.157       .  T
C1401      C1402   1.414   1_455  A
C1401      C1406   1.411       .  A
C1402      C1403   1.411   1_656  A
C1402      H1407   1.085       .  S
C1403      C1404   1.411       .  A
C1403      C1410   1.443   1_455  S
C1404      C1405   1.414   1_554  A
C1405      C1406   1.414       .  A
C1405      H1408   1.082       .  S
C1406      C1409   1.443       .  S
C1409      N1411   1.157       .  T
C1410      N1412   1.157       .  T
C1413      C1414   1.402       .  A
C1413      C1418   1.415       .  A
C1414      C1415   1.405       .  A
C1414      H1419   1.081       .  S
C1415      C1416   1.414       .  A
C1415      C1422   1.444   1_565  S
C1416      C1417   1.406       .  A
C1417      C1418   1.412       .  A
C1417      H1420   1.085       .  S
C1418      C1421   1.443       .  S
C1421      N1423   1.157       .  T
C1422      N1424   1.157       .  T
C1425      C1426   1.412       .  A
C1425      C1430   1.422       .  A
C1426      C1427   1.411       .  A
C1426      H1431   1.084       .  S
C1427      C1428   1.413       .  A
C1427      C1434   1.444       .  S
C1428      C1429   1.402       .  A
C1429      C1430   1.409       .  A
C1429      H1432   1.085   1_545  S
C1430      C1433   1.443   1_545  S
C1433      N1435   1.157       .  T
C1434      N1436   1.157       .  T
C1437      C1438   1.422       .  A
C1437      C1442   1.407   1_556  A
C1438      C1439   1.413   1_565  A
C1438      H1443   1.085       .  S
C1439      C1440   1.407   1_556  A
C1439      C1446   1.441       .  S
C1440      C1441   1.420   1_545  A
C1441      C1442   1.412       .  A
C1441      H1444   1.085       .  S
C1442      C1445   1.442       .  S
C1445      N1447   1.157       .  T
C1446      N1448   1.157       .  T
C1449      C1450   1.413       .  A
C1449      C1454   1.407       .  A
C1450      C1451   1.409       .  A
C1450      H1455   1.085   1_554  S
C1451      C1452   1.406       .  A
C1451      C1458   1.441   1_554  S
C1452      C1453   1.415       .  A
C1453      C1454   1.407       .  A
C1453      H1456   1.085       .  S
C1454      C1457   1.445       .  S
C1457      N1459   1.157       .  T
C1458      N1460   1.157       .  T
C1461      C1462   1.412       .  A
C1461      C1466   1.411       .  A
C1462      C1463   1.409   1_655  A
C1462      H1467   1.085   1_565  S
C1463      C1464   1.412       .  A
C1463      C1470   1.443   1_565  S
C1464      C1465   1.414   1_455  A
C1465      C1466   1.414       .  A
C1465      H1468   1.084       .  S
C1466      C1469   1.443       .  S
C1469      N1471   1.157       .  T
C1470      N1472   1.157       .  T
C1473      C1474   1.409   1_545  A
C1473      C1478   1.411       .  A
C1474      C1475   1.417       .  A
C1474      H1479   1.085       .  S
C1475      C1476   1.421   1_665  A
C1475      C1482   1.443   1_655  S
C1476      C1477   1.413   1_455  A
C1477      C1478   1.408       .  A
C1477      H1480   1.084       .  S
C1478      C1481   1.445       .  S
C1481      N1483   1.157       .  T
C1482      N1484   1.157       .  T
C1485      C1486   1.397       .  A
C1485      C1490   1.429       .  A
C1486      C1487   1.404       .  A
C1486      H1491   1.085       .  S
C1487      C1488   1.430       .  A
C1487      C1494   1.446   1_565  S
C1488      C1489   1.396       .  A
C1489      C1490   1.402       .  A
C1489      H1492   1.085       .  S
C1490      C1493   1.446       .  S
C1493      N1495   1.157       .  T
C1494      N1496   1.158       .  T
C1497      C1498   1.411   1_556  A
C1497      C1502   1.409       .  A
C1498      C1499   1.403   1_564  A
C1498      H1503   1.086       .  S
C1499      C1500   1.414       .  A
C1499      C1506   1.443   1_556  S
C1500      C1501   1.419   1_545  A
C1501      C1502   1.416       .  A
C1501      H1504   1.084       .  S
C1502      C1505   1.442       .  S
C1505      N1507   1.157       .  T
C1506      N1508   1.157       .  T
C1509      C1510   1.414       .  A
C1509      C1514   1.410       .  A
C1510      C1511   1.410       .  A
C1510      H1515   1.084       .  S
C1511      C1512   1.407       .  A
C1511      C1518   1.442       .  S
C1512      C1513   1.410   1_556  A
C1513      C1514   1.395   1_554  A
C1513      H1516   1.086       .  S
C1514      C1517   1.444   1_556  S
C1517      N1519   1.157       .  T
C1518      N1520   1.157       .  T
C1521      C1522   1.409       .  A
C1521      C1526   1.409       .  A
C1522      C1523   1.405       .  A
C1522      H1527   1.085       .  S
C1523      C1524   1.408   1_554  A
C1523      C1530   1.443   1_554  S
C1524      C1525   1.409   1_556  A
C1525      C1526   1.403       .  A
C1525      H1528   1.085       .  S
C1526      C1529   1.445       .  S
C1529      N1531   1.157       .  T
C1530      N1532   1.157       .  T
C1533      C1534   1.399       .  A
C1533      C1538   1.416       .  A
C1534      C1535   1.404       .  A
C1534      H1539   1.085   1_545  S
C1535      C1536   1.419       .  A
C1535      C1542   1.444       .  S
C1536      C1537   1.398       .  A
C1537      C1538   1.398       .  A
C1537      H1540   1.085       .  S
C1538      C1541   1.446       .  S
C1541      N1543   1.157       .  T
C1542      N1544   1.157   1_545  T
C1545      C1546   1.416       .  A
C1545      C1550   1.405   1_545  A
C1546      C1547   1.406       .  A
C1546      H1551   1.085       .  S
C1547      C1548   1.405   1_545  A
C1547      C1554   1.442       .  S
C1548      C1549   1.420       .  A
C1549      C1550   1.410       .  A
C1549      H1552   1.085       .  S
C1550      C1553   1.443       .  S
C1553      N1555   1.157       .  T
C1554      N1556   1.157       .  T
C1557      C1558   1.413       .  A
C1557      C1562   1.421       .  A
C1558      C1559   1.412       .  A
C1558      H1563   1.084       .  S
C1559      C1560   1.413       .  A
C1559      C1566   1.443       .  S
C1560      C1561   1.409       .  A
C1561      C1562   1.413       .  A
C1561      H1564   1.085       .  S
C1562      C1565   1.444       .  S
C1565      N1567   1.157       .  T
C1566      N1568   1.157       .  T
C1569      C1570   1.399       .  A
C1569      C1574   1.427       .  A
C1570      C1571   1.400   1_556  A
C1570      H1575   1.085   1_556  S
C1571      C1572   1.417   1_554  A
C1571      C1578   1.444       .  S
C1572      C1573   1.399       .  A
C1573      C1574   1.409       .  A
C1573      H1576   1.085       .  S
C1574      C1577   1.444       .  S
C1577      N1579   1.157       .  T
C1578      N1580   1.157       .  T
C1581      C1582   1.408   1_556  A
C1581      C1586   1.414   1_556  A
C1582      C1583   1.400       .  A
C1582      H1587   1.085       .  S
C1583      C1584   1.410       .  A
C1583      C1590   1.445       .  S
C1584      C1585   1.411       .  A
C1585      C1586   1.414       .  A
C1585      H1588   1.085       .  S
C1586      C1589   1.443   1_554  S
C1589      N1591   1.158       .  T
C1590      N1592   1.157       .  T
C1593      C1594   1.402       .  A
C1593      C1598   1.421       .  A
C1594      C1595   1.409       .  A
C1594      H1599   1.084       .  S
C1595      C1596   1.417       .  A
C1595      C1602   1.444       .  S
C1596      C1597   1.396       .  A
C1597      C1598   1.400       .  A
C1597      H1600   1.085       .  S
C1598      C1601   1.445       .  S
C1601      N1603   1.157       .  T
C1602      N1604   1.157       .  T
C1605      C1606   1.416       .  A
C1605      C1610   1.404       .  A
C1606      C1607   1.403       .  A
C1606      H1611   1.085       .  S
C1607      C1608   1.406       .  A
C1607      C1614   1.444       .  S
C1608      C1609   1.416       .  A
C1609      C1610   1.407       .  A
C1609      H1612   1.085       .  S
C1610      C1613   1.441       .  S
C1613      N1615   1.157       .  T
C1614      N1616   1.158       .  T
C1617      C1618   1.410       .  A
C1617      C1622   1.421       .  A
C1618      C1619   1.404       .  A
C1618      H1623   1.084       .  S
C1619      C1620   1.410       .  A
C1619      C1626   1.444       .  S
C1620      C1621   1.404       .  A
C1621      C1622   1.410       .  A
C1621      H1624   1.085       .  S
C1622      C1625   1.443       .  S
C1625      N1627   1.157       .  T
C1626      N1628   1.157       .  T
C1629      C1630   1.415   1_556  A
C1629      C1634   1.408       .  A
C1630      C1631   1.415       .  A
C1630      H1635   1.085       .  S
C1631      C1632   1.411   1_554  A
C1631      C1638   1.442       .  S
C1632      C1633   1.416       .  A
C1633      C1634   1.409       .  A
C1633      H1636   1.085       .  S
C1634      C1637   1.444       .  S
C1637      N1639   1.157       .  T
C1638      N1640   1.157       .  T
C1641      C1642   1.417   1_554  A
C1641      C1646   1.412       .  A
C1642      C1643   1.413       .  A
C1642      H1647   1.084       .  S
C1643      C1644   1.410       .  A
C1643      C1650   1.442       .  S
C1644      C1645   1.411       .  A
C1645      C1646   1.404   1_556  A
C1645      H1648   1.085   1_655  S
C1646      C1649   1.444   1_655  S
C1649      N1651   1.157       .  T
C1650      N1652   1.157       .  T
C1653      C1654   1.411   1_655  A
C1653      C1658   1.411       .  A
C1654      C1655   1.402   1_455  A
C1654      H1659   1.085       .  S
C1655      C1656   1.407       .  A
C1655      C1662   1.443   1_655  S
C1656      C1657   1.414       .  A
C1657      C1658   1.413       .  A
C1657      H1660   1.084       .  S
C1658      C1661   1.444       .  S
C1661      N1663   1.157       .  T
C1662      N1664   1.157       .  T
C1665      C1666   1.413       .  A
C1665      C1670   1.411       .  A
C1666      C1667   1.413       .  A
C1666      H1671   1.085       .  S
C1667      C1668   1.411   1_455  A
C1667      C1674   1.443   1_455  S
C1668      C1669   1.410   1_655  A
C1669      C1670   1.409       .  A
C1669      H1672   1.085       .  S
C1670      C1673   1.443       .  S
C1673      N1675   1.157       .  T
C1674      N1676   1.157       .  T
C1677      C1678   1.417       .  A
C1677      C1682   1.406       .  A
C1678      C1679   1.409       .  A
C1678      H1683   1.085       .  S
C1679      C1680   1.407       .  A
C1679      C1686   1.443       .  S
C1680      C1681   1.418       .  A
C1681      C1682   1.412       .  A
C1681      H1684   1.085   1_554  S
C1682      C1685   1.442   1_554  S
C1685      N1687   1.157       .  T
C1686      N1688   1.157       .  T
C1689      C1690   1.417       .  A
C1689      C1694   1.406       .  A
C1690      C1691   1.407       .  A
C1690      H1695   1.085       .  S
C1691      C1692   1.407       .  A
C1691      C1698   1.443       .  S
C1692      C1693   1.420   1_554  A
C1693      C1694   1.410   1_556  A
C1693      H1696   1.085       .  S
C1694      C1697   1.442   1_554  S
C1697      N1699   1.157       .  T
C1698      N1700   1.157       .  T
C1701      C1702   1.411       .  A
C1701      C1706   1.421       .  A
C1702      C1703   1.411       .  A
C1702      H1707   1.084       .  S
C1703      C1704   1.414       .  A
C1703      C1710   1.444       .  S
C1704      C1705   1.405       .  A
C1705      C1706   1.406       .  A
C1705      H1708   1.086       .  S
C1706      C1709   1.445       .  S
C1709      N1711   1.157       .  T
C1710      N1712   1.157       .  T
C1713      C1714   1.409       .  A
C1713      C1718   1.407       .  A
C1714      C1715   1.411       .  A
C1714      H1719   1.085       .  S
C1715      C1716   1.412       .  A
C1715      C1722   1.443       .  S
C1716      C1717   1.412       .  A
C1717      C1718   1.406       .  A
C1717      H1720   1.085   1_655  S
C1718      C1721   1.443   1_655  S
C1721      N1723   1.157       .  T
C1722      N1724   1.157       .  T
C1725      C1726   1.403       .  A
C1725      C1730   1.427       .  A
C1726      C1727   1.402       .  A
C1726      H1731   1.085       .  S
C1727      C1728   1.420       .  A
C1727      C1734   1.446   1_655  S
C1728      C1729   1.403       .  A
C1729      C1730   1.415       .  A
C1729      H1732   1.084       .  S
C1730      C1733   1.443       .  S
C1733      N1735   1.158       .  T
C1734      N1736   1.157       .  T
C1737      C1738   1.411       .  A
C1737      C1742   1.414       .  A
C1738      C1739   1.412       .  A
C1738      H1743   1.084       .  S
C1739      C1740   1.410       .  A
C1739      C1746   1.443       .  S
C1740      C1741   1.412       .  A
C1741      C1742   1.415       .  A
C1741      H1744   1.085       .  S
C1742      C1745   1.442   1_455  S
C1745      N1747   1.157       .  T
C1746      N1748   1.157       .  T
C1749      C1750   1.400       .  A
C1749      C1754   1.429       .  A
C1750      C1751   1.412       .  A
C1750      H1755   1.085       .  S
C1751      C1752   1.432       .  A
C1751      C1758   1.446       .  S
C1752      C1753   1.399       .  A
C1753      C1754   1.409       .  A
C1753      H1756   1.084       .  S
C1754      C1757   1.445       .  S
C1757      N1759   1.157       .  T
C1758      N1760   1.158       .  T
C1761      C1762   1.419       .  A
C1761      C1766   1.407       .  A
C1762      C1763   1.411       .  A
C1762      H1767   1.085       .  S
C1763      C1764   1.408       .  A
C1763      C1770   1.442       .  S
C1764      C1765   1.422       .  A
C1765      C1766   1.408       .  A
C1765      H1768   1.084       .  S
C1766      C1769   1.444       .  S
C1769      N1771   1.158       .  T
C1770      N1772   1.157       .  T
C1773      C1774   1.413       .  A
C1773      C1778   1.421       .  A
C1774      C1775   1.407       .  A
C1774      H1779   1.084       .  S
C1775      C1776   1.410       .  A
C1775      C1782   1.444       .  S
C1776      C1777   1.407       .  A
C1777      C1778   1.410       .  A
C1777      H1780   1.085       .  S
C1778      C1781   1.444       .  S
C1781      N1783   1.157       .  T
C1782      N1784   1.157       .  T
C1785      C1786   1.397       .  A
C1785      C1790   1.420       .  A
C1786      C1787   1.406       .  A
C1786      H1791   1.085       .  S
C1787      C1788   1.425       .  A
C1787      C1794   1.446       .  S
C1788      C1789   1.399       .  A
C1789      C1790   1.406       .  A
C1789      H1792   1.084       .  S
C1790      C1793   1.445       .  S
C1793      N1795   1.157       .  T
C1794      N1796   1.158       .  T
C1797      C1798   1.407       .  A
C1797      C1802   1.409       .  A
C1798      C1799   1.398       .  A
C1798      H1803   1.085       .  S
C1799      C1800   1.407       .  A
C1799      C1806   1.444       .  S
C1800      C1801   1.408       .  A
C1801      C1802   1.405       .  A
C1801      H1804   1.085       .  S
C1802      C1805   1.444       .  S
C1805      N1807   1.157       .  T
C1806      N1808   1.157       .  T
C1809      C1810   1.416       .  A
C1809      C1814   1.413       .  A
C1810      C1811   1.410       .  A
C1810      H1815   1.085       .  S
C1811      C1812   1.409       .  A
C1811      C1818   1.443       .  S
C1812      C1813   1.413       .  A
C1813      C1814   1.408       .  A
C1813      H1816   1.085       .  S
C1814      C1817   1.444       .  S
C1817      N1819   1.157       .  T
C1818      N1820   1.157       .  T
C1821      C1822   1.419       .  A
C1821      C1826   1.409       .  A
C1822      C1823   1.403       .  A
C1822      H1827   1.084       .  S
C1823      C1824   1.403       .  A
C1823      C1830   1.444       .  S
C1824      C1825   1.415       .  A
C1825      C1826   1.409       .  A
C1825      H1828   1.085       .  S
C1826      C1829   1.443       .  S
C1829      N1831   1.157       .  T
C1830      N1832   1.157       .  T
C1833      C1834   1.412       .  A
C1833      C1838   1.412       .  A
C1834      C1835   1.413       .  A
C1834      H1839   1.085       .  S
C1835      C1836   1.410       .  A
C1835      C1842   1.442       .  S
C1836      C1837   1.415       .  A
C1837      C1838   1.415       .  A
C1837      H1840   1.085       .  S
C1838      C1841   1.443       .  S
C1841      N1843   1.157       .  T
C1842      N1844   1.157       .  T
C1845      C1846   1.406       .  A
C1845      C1850   1.415       .  A
C1846      C1847   1.416       .  A
C1846      H1851   1.085       .  S
C1847      C1848   1.426       .  A
C1847      C1854   1.443       .  S
C1848      C1849   1.413       .  A
C1849      C1850   1.414       .  A
C1849      H1852   1.084       .  S
C1850      C1853   1.444       .  S
C1853      N1855   1.157       .  T
C1854      N1856   1.157       .  T
