geometry optimzed in LAMMPS
_audit_creation_date              2020-11-30 
_audit_creation_method            'lammps2cif' 
_symmetry_space_group_name_H-M    'P1' 
_symmetry_Int_Tables_number       1 
_symmetry_cell_setting            triclinic 
loop_ 
_symmetry_equiv_pos_as_xyz 
  x,y,z 
_cell_length_a                    53.74728925 
_cell_length_b                    54.316232441260624 
_cell_length_c                    54.06910144496533 
_cell_angle_alpha                 90.07862397735639 
_cell_angle_beta                  89.98579978853607 
_cell_angle_gamma                 89.88652206733329 
loop_ 
_atom_site_label 
_atom_site_type_symbol 
_atom_site_fract_x 
_atom_site_fract_y 
_atom_site_fract_z 
_atom_site_charge 
O1          O  0.58690984  0.65444290  0.64073478    -0.77900
C2          C  0.64952756  0.66737684  0.58640817     0.83100
O3          O  0.57766994  0.61178269  0.56031060    -0.79000
O4          O  0.65277410  0.58197303  0.56859281    -0.80500
O5          O  0.65195725  0.58888212  0.65284088    -0.80300
O6          O  0.60360299  0.62598305  0.66520320    -0.78900
Zn7        Zn  0.60201269  0.64502885  0.60702173     1.55700
O8          O  0.67506634  0.60309319  0.62183365    -0.80300
Cd9        Cd  0.61602732  0.59893868  0.64171473     1.59700
Cd10       Cd  0.59393885  0.59110685  0.58789720     1.59600
O11         O  0.58871761  0.57199810  0.64587457    -0.80300
O12         O  0.61578599  0.61233015  0.60778222    -1.90800
Cd13       Cd  0.64992036  0.61139943  0.59380946     1.59900
O14         O  0.56739380  0.57541256  0.61077274    -0.80300
O15         O  0.65903834  0.64653528  0.58042795    -0.78900
C16         C  0.57302147  0.63473968  0.55942405     0.83600
C17         C  0.59087560  0.64559311  0.66230663     0.83300
O18         O  0.62928608  0.66869029  0.59858674    -0.77900
C19         C  0.67321915  0.59345521  0.64329528     0.84100
O20         O  0.57880319  0.64889499  0.57743357    -0.78000
C21         C  0.56912057  0.56794808  0.63306817     0.84200
C22         C  0.63789311  0.56416257  0.56393238     0.84500
O23         O  0.61535190  0.56443036  0.57132684    -0.80400
O24         O  0.85866389  0.59092918  0.34652262    -0.77900
C25         C  0.91567765  0.65096616  0.33705095     0.83100
O26         O  0.93990634  0.57798266  0.38965014    -0.79000
O27         O  0.93270303  0.65181424  0.42188168    -0.80500
O28         O  0.84809052  0.65079222  0.41707210    -0.80300
O29         O  0.83417596  0.60600840  0.37612457    -0.78900
Zn30       Zn  0.89322318  0.60350222  0.35715534     1.55700
O31         O  0.87908733  0.67416717  0.40315448    -0.80300
Cd32       Cd  0.85832068  0.61574194  0.40407358     1.59700
Cd33       Cd  0.91318962  0.59429055  0.41164665     1.59600
O34         O  0.85413151  0.58668212  0.42901275    -0.80300
O35         O  0.89261535  0.61592863  0.39072430    -1.90800
Cd36       Cd  0.90675380  0.64955894  0.39303024     1.59900
O37         O  0.89070527  0.56741609  0.42693381    -0.80300
O38         O  0.92026763  0.65992257  0.35843983    -0.78900
C39         C  0.93966947  0.57227225  0.36678808     0.83600
C40         C  0.83697101  0.59500980  0.35548953     0.83300
O41         O  0.90349652  0.63099086  0.33444240    -0.77900
C42         C  0.85794249  0.67195571  0.41366099     0.84100
O43         O  0.92152470  0.57853163  0.35280942    -0.78000
C44         C  0.86780810  0.56786093  0.43320881     0.84200
C45         C  0.93780439  0.63705636  0.43962394     0.84500
O46         O  0.93040865  0.61476666  0.43915786    -0.80400
O47         O  0.92918533  0.43247654  0.14477547    -0.77900
C48         C  0.87317522  0.43760010  0.08299318     0.83100
O49         O  0.84982412  0.38404533  0.15436524    -0.79000
O50         O  0.86536476  0.35237108  0.07972124    -0.80500
O51         O  0.94706413  0.36035024  0.08918970    -0.80300
O52         O  0.95604047  0.40392676  0.13182974    -0.78900
Zn53       Zn  0.89574190  0.41922619  0.13147117     1.55700
O54         O  0.91918750  0.37468760  0.06229250    -0.80300
Cd55       Cd  0.93407114  0.37451907  0.12250305     1.59700
Cd56       Cd  0.87852067  0.36364134  0.13944698     1.59600
O57         O  0.93819427  0.35081295  0.15245638    -0.80300
O58         O  0.89924005  0.38586230  0.11929725    -1.90800
Cd59       Cd  0.88843033  0.38304916  0.08423375     1.59900
O60         O  0.89984624  0.34843698  0.16765401    -0.80300
O61         O  0.87158729  0.41620213  0.07316797    -0.78900
C62         C  0.84853910  0.40675617  0.16028428     0.83600
C63         C  0.95152075  0.42472515  0.14173371     0.83300
O64         O  0.88410935  0.44101129  0.10364296    -0.77900
C65         C  0.93972789  0.36370311  0.06699471     0.84100
O66         O  0.86641716  0.42151975  0.15557231    -0.78000
C67         C  0.92316472  0.34414240  0.16942378     0.84200
C68         C  0.85924906  0.33483120  0.09426671     0.84500
O69         O  0.86377285  0.33604858  0.11737802    -0.80400
C70         C  0.75960995  0.62247480  0.00989533     0.03700
C71         C  0.78023182  0.60844062  0.01795982    -0.12400
C72         C  0.77891512  0.58256335  0.01816569     0.01200
C73         C  0.75734062  0.57092504  0.00994077    -0.11000
C74         C  0.73689100  0.58451915  0.00180611     0.03700
C75         C  0.73790059  0.61031978  0.00187723    -0.10400
H76         H  0.79687940  0.61755027  0.02450593     0.09300
H77         H  0.75637409  0.55094136  0.01004676     0.06800
H78         H  0.72201605  0.62084460  0.99549730     0.06700
C79         C  0.13065320  0.50573299  0.25714486     0.03700
C80         C  0.11669978  0.51309889  0.27808445    -0.12400
C81         C  0.09056620  0.51418727  0.27679442     0.01200
C82         C  0.07860763  0.50816766  0.25473230    -0.11000
C83         C  0.09194247  0.50068548  0.23390750     0.03700
C84         C  0.11804850  0.49936619  0.23509974    -0.10400
H85         H  0.12607692  0.51789142  0.29516576     0.09300
H86         H  0.05842883  0.50869265  0.25398203     0.06800
H87         H  0.12847920  0.49318189  0.21908738     0.06700
O88         O  0.59141866  0.35656391  0.85525229    -0.77900
C89         C  0.65545853  0.34194494  0.90701214     0.83100
O90         O  0.57984367  0.39604686  0.93700552    -0.79000
O91         O  0.65587582  0.42536682  0.93186037    -0.80500
O92         O  0.65269803  0.42586406  0.84733312    -0.80300
O93         O  0.60734807  0.38638266  0.83205509    -0.78900
Zn94       Zn  0.60578028  0.36418115  0.88979210     1.55700
O95         O  0.67665485  0.41095618  0.87733474    -0.80300
Cd96       Cd  0.61790306  0.41257916  0.85726866     1.59700
Cd97       Cd  0.59723697  0.41795246  0.91157331     1.59600
O98         O  0.58979284  0.43879181  0.85449480    -0.80300
O99         O  0.61855991  0.39735909  0.89048333    -1.90800
Cd100      Cd  0.65279162  0.39836072  0.90425429     1.59900
O101        O  0.57083536  0.43602493  0.89081502    -0.80300
O102        O  0.66453593  0.36278051  0.91342876    -0.78900
C103        C  0.57447828  0.37320991  0.93665653     0.83600
C104        C  0.59521060  0.36642078  0.83403599     0.83300
O105        O  0.63419807  0.34043070  0.89661119    -0.77900
C106        C  0.67410364  0.42236466  0.85690052     0.84100
O107        O  0.58136108  0.35928165  0.91878372    -0.78000
C108        C  0.57146326  0.44381769  0.86860479     0.84200
C109        C  0.64126968  0.44336457  0.93672654     0.84500
O110        O  0.61879646  0.44369837  0.92923947    -0.80400
O111        O  0.43285325  0.14272139  0.92316933    -0.77900
C112        C  0.44313515  0.07999636  0.86767808     0.83100
O113        O  0.38717212  0.14843758  0.84244867    -0.79000
O114        O  0.35557808  0.07590857  0.85674394    -0.80500
O115        O  0.36498384  0.07921636  0.93767345    -0.80300
O116        O  0.40601922  0.12579227  0.94958723    -0.78900
Zn117      Zn  0.42228283  0.12740779  0.88969749     1.55700
O118        O  0.38084227  0.05630726  0.90734910    -0.80300
Cd119      Cd  0.37728266  0.11450570  0.92689144     1.59700
Cd120      Cd  0.36713721  0.13408231  0.87183539     1.59600
O121        O  0.35188595  0.14350659  0.93116007    -0.80300
O122        O  0.38934040  0.11395821  0.89224679    -1.90800
Cd123      Cd  0.38743671  0.08028390  0.87884117     1.59900
O124        O  0.35319699  0.16142006  0.89412310    -0.80300
O125        O  0.42165073  0.07095724  0.86316230    -0.78900
C126        C  0.41005533  0.15454754  0.84149103     0.83600
C127        C  0.42524387  0.13883738  0.94532325     0.83300
O128        O  0.44558524  0.09982540  0.88018389    -0.77900
C129        C  0.36978489  0.05812980  0.92812925     0.84100
O130        O  0.42476705  0.15058965  0.85968263    -0.78000
C131        C  0.34718681  0.16175859  0.91696548     0.84200
C132        C  0.33690466  0.09020139  0.85338248     0.84500
O133        O  0.33803372  0.11293025  0.85902354    -0.80400
C134        C  0.51019688  0.25877390  0.12301388     0.03700
C135        C  0.51612443  0.28033524  0.10950398    -0.12400
C136        C  0.51348823  0.28082010  0.08355004     0.01200
C137        C  0.50465427  0.26002479  0.07131166    -0.11000
C138        C  0.49864583  0.23858822  0.08404435     0.03700
C139        C  0.50143584  0.23783512  0.10998989    -0.10400
H140        H  0.52299284  0.29648383  0.11906863     0.09300
H141        H  0.50260920  0.26043055  0.05132044     0.06800
H142        H  0.49653589  0.22125584  0.11997325     0.06700
C143        C  0.50990075  0.24837725  0.65651365     0.03700
C144        C  0.49651086  0.23108245  0.67076309    -0.12400
C145        C  0.49643119  0.23274563  0.69678702     0.01200
C146        C  0.51023033  0.25128231  0.70833235    -0.11000
C147        C  0.52367757  0.26843285  0.69454610     0.03700
C148        C  0.52332126  0.26717937  0.66862137    -0.10400
H149        H  0.48571198  0.21688695  0.66166968     0.09300
H150        H  0.51025810  0.25259665  0.72836957     0.06800
H151        H  0.53350588  0.28067994  0.65791972     0.06700
C152        C  0.62507319  0.00164547  0.75241351     0.03700
C153        C  0.61282668  0.01187761  0.77309554    -0.12400
C154        C  0.58672602  0.01341693  0.77342704     0.01200
C155        C  0.57306777  0.00408868  0.75351513    -0.11000
C156        C  0.58499067  0.99374862  0.73302482     0.03700
C157        C  0.61104311  0.99262611  0.73240131    -0.10400
H158        H  0.62351874  0.01936514  0.78832182     0.09300
H159        H  0.55289224  0.00529205  0.75378716     0.06800
H160        H  0.62035611  0.98493069  0.71637037     0.06700
C161        C  0.92932787  0.98309707  0.27255166     0.03700
C162        C  0.94172818  0.99289926  0.25218591    -0.12400
C163        C  0.92882907  0.00483913  0.23329191     0.01200
C164        C  0.90263180  0.00650978  0.23452666    -0.11000
C165        C  0.88966383  0.99665593  0.25506881     0.03700
C166        C  0.90330525  0.98517698  0.27419259    -0.10400
H167        H  0.96188877  0.99163387  0.25127975     0.09300
H168        H  0.89248468  0.01563395  0.21984329     0.06800
H169        H  0.89369645  0.97750057  0.29001262     0.06700
C170        C  0.27455071  0.31386207  0.99249921     0.03700
C171        C  0.27402338  0.33962837  0.99023593    -0.12400
C172        C  0.25900455  0.35380147  0.00632276     0.01200
C173        C  0.24473488  0.34190985  0.02467880    -0.11000
C174        C  0.24574124  0.31614231  0.02701310     0.03700
C175        C  0.26053509  0.30250597  0.01082457    -0.10400
H176        H  0.28495832  0.34853465  0.97600817     0.09300
H177        H  0.23317660  0.35260258  0.03712194     0.06800
H178        H  0.26090789  0.28254814  0.01228539     0.06700
C179        C  0.25471643  0.87862413  0.00653257     0.03700
C180        C  0.27509317  0.89099871  0.99584006    -0.12400
C181        C  0.27486752  0.91678624  0.99402721     0.01200
C182        C  0.25490333  0.93007664  0.00385058    -0.11000
C183        C  0.23479954  0.91808410  0.01476939     0.03700
C184        C  0.23448231  0.89231228  0.01587824    -0.10400
H185        H  0.29053897  0.88063241  0.98824861     0.09300
H186        H  0.25494159  0.95005629  0.00284361     0.06800
H187        H  0.21880013  0.88300377  0.02424437     0.06700
C188        C  0.32413777  0.99100964  0.27014503     0.03700
C189        C  0.31110813  0.00445413  0.25238684    -0.12400
C190        C  0.32359426  0.01850104  0.23475560     0.01200
C191        C  0.34969867  0.01852181  0.23425188    -0.11000
C192        C  0.36320851  0.00503117  0.25205788     0.03700
C193        C  0.35026275  0.99136790  0.27012261    -0.10400
H194        H  0.29089679  0.00450251  0.25268197     0.09300
H195        H  0.35941158  0.02960018  0.22068740     0.06800
H196        H  0.36043191  0.98110325  0.28402747     0.06700
C197        C  0.01252842  0.25141141  0.88252653     0.03700
C198        C  0.02114396  0.22943434  0.89339746    -0.12400
C199        C  0.02424937  0.22803559  0.91908110     0.01200
C200        C  0.01847337  0.24832990  0.93388422    -0.11000
C201        C  0.00945257  0.27010434  0.92354373     0.03700
C202        C  0.00678114  0.27180672  0.89771438    -0.10400
H203        H  0.02545776  0.21358368  0.88195750     0.09300
H204        H  0.02041076  0.24689443  0.95383164     0.06800
H205        H  0.99963900  0.28860240  0.88956885     0.06700
C206        C  0.99289966  0.25790145  0.31827624     0.03700
C207        C  0.00645567  0.24014399  0.30547479    -0.12400
C208        C  0.02073602  0.22270244  0.31787995     0.01200
C209        C  0.02111658  0.22247896  0.34382364    -0.11000
C210        C  0.00748132  0.24020382  0.35735419     0.03700
C211        C  0.99350988  0.25820739  0.34437582    -0.10400
H212        H  0.00632717  0.24025060  0.28536729     0.09300
H213        H  0.03235467  0.20893351  0.35340344     0.06800
H214        H  0.98303370  0.27202292  0.35443557     0.06700
O215        O  0.09393713  0.07127830  0.14274941    -0.77900
C216        C  0.14566585  0.06448796  0.07748133     0.83100
O217        O  0.17372661  0.11730660  0.14910511    -0.79000
O218        O  0.15968260  0.15033326  0.07828945    -0.80500
O219        O  0.07609684  0.14184270  0.08446875    -0.80300
O220        O  0.06715850  0.09941015  0.12899993    -0.78900
Zn221      Zn  0.12684431  0.08302279  0.12725330     1.55700
O222        O  0.10604913  0.12830637  0.05911182    -0.80300
Cd223      Cd  0.08910989  0.12851403  0.11848581     1.59700
Cd224      Cd  0.14418193  0.13702357  0.13628585     1.59600
O225        O  0.08580267  0.15220125  0.14890746    -0.80300
O226        O  0.12359601  0.11614919  0.11541033    -1.90800
Cd227      Cd  0.13593322  0.11973326  0.08118340     1.59900
O228        O  0.12361198  0.14904041  0.16557503    -0.80300
O229        O  0.14992635  0.08596655  0.06880047    -0.78900
C230        C  0.17575351  0.09449527  0.15378534     0.83600
C231        C  0.07163892  0.07923549  0.14022035     0.83300
O232        O  0.13485102  0.06151950  0.09825976    -0.77900
C233        C  0.08471972  0.13793679  0.06273793     0.84100
O234        O  0.15796946  0.07954987  0.14909900    -0.78000
C235        C  0.10076392  0.15492935  0.16710223     0.84200
C236        C  0.16353019  0.16781375  0.09371783     0.84500
O237        O  0.15700591  0.16612436  0.11628305    -0.80400
O238        O  0.44004479  0.86028991  0.58546827    -0.77900
C239        C  0.44353194  0.92293743  0.64061311     0.83100
O240        O  0.39415779  0.84823367  0.66586097    -0.79000
O241        O  0.35604326  0.91930371  0.65126577    -0.80500
O242        O  0.36568301  0.91521410  0.57128638    -0.80300
O243        O  0.41004109  0.87242420  0.55960744    -0.78900
Zn244      Zn  0.42750986  0.87356283  0.61917978     1.55700
O245        O  0.38138061  0.93996419  0.60041249    -0.80300
Cd246      Cd  0.38030730  0.88094319  0.58240660     1.59700
Cd247      Cd  0.37268620  0.86125840  0.63722524     1.59600
O248        O  0.35620611  0.85057877  0.57915009    -0.80300
O249        O  0.39307590  0.88317446  0.61667220    -1.90800
Cd250      Cd  0.38840680  0.91695504  0.62956201     1.59900
O251        O  0.35914608  0.83267580  0.61605010    -0.80300
O252        O  0.42124777  0.92959582  0.64551560    -0.78900
C253        C  0.41758717  0.84475916  0.66723701     0.83600
C254        C  0.43147180  0.86300602  0.56349461     0.83300
O255        O  0.44807062  0.90341786  0.62821060    -0.77900
C256        C  0.37031942  0.93672625  0.57987093     0.84100
O257        O  0.43209455  0.85105328  0.64954793    -0.78000
C258        C  0.35227353  0.83222981  0.59347008     0.84200
C259        C  0.33930569  0.90323575  0.65599631     0.84500
O260        O  0.34279271  0.88053708  0.65122106    -0.80400
O261        O  0.09588903  0.92841702  0.36538250    -0.77900
C262        C  0.15086022  0.93607145  0.42967735     0.83100
O263        O  0.18036345  0.88920635  0.35749213    -0.79000
O264        O  0.16464037  0.84903820  0.42614586    -0.80500
O265        O  0.08546957  0.85533528  0.42133469    -0.80300
O266        O  0.07263489  0.89643475  0.37675860    -0.78900
Zn267      Zn  0.13020920  0.91884165  0.38002541     1.55700
O268        O  0.11299627  0.87152156  0.44755723    -0.80300
Cd269      Cd  0.09699174  0.86963437  0.38736970     1.59700
Cd270      Cd  0.15150942  0.86646204  0.36793285     1.59600
O271        O  0.09529321  0.84547040  0.35736361    -0.80300
O272        O  0.12990373  0.88498856  0.39024285    -1.90800
Cd273      Cd  0.14220753  0.88071288  0.42444025     1.59900
O274        O  0.13058622  0.85454441  0.33795036    -0.80300
O275        O  0.15667803  0.91431584  0.43673577    -0.78900
C276        C  0.17975028  0.91227793  0.35321185     0.83600
C277        C  0.07470960  0.91768212  0.36714460     0.83300
O278        O  0.13817581  0.93962116  0.40999196    -0.77900
C279        C  0.09318373  0.85932398  0.44335220     0.84100
O280        O  0.16036632  0.92530641  0.35753425    -0.78000
C281        C  0.10875202  0.84533969  0.33784503     0.84200
C282        C  0.16841659  0.83235656  0.40977981     0.84500
O283        O  0.16413205  0.83621545  0.38694519    -0.80400
C284        C  0.01041777  0.74901640  0.62529623     0.03700
C285        C  0.01827538  0.76968440  0.61154258    -0.12400
C286        C  0.01841901  0.76883812  0.58551010     0.01200
C287        C  0.01041472  0.74754210  0.57348022    -0.11000
C288        C  0.00250585  0.72695981  0.58664188     0.03700
C289        C  0.00247490  0.72760216  0.61266011    -0.10400
H290        H  0.02466084  0.78608268  0.62101973     0.09300
H291        H  0.01055152  0.74685061  0.55339833     0.06800
H292        H  0.99648803  0.71158281  0.62298406     0.06700
C293        C  0.25573260  0.12019070  0.51379994     0.03700
C294        C  0.27713857  0.10735590  0.52171729    -0.12400
C295        C  0.27802800  0.08160773  0.52040940     0.01200
C296        C  0.25748094  0.06866949  0.51156544    -0.11000
C297        C  0.23616593  0.08096521  0.50354904     0.03700
C298        C  0.23510343  0.10682812  0.50478808    -0.10400
H299        H  0.29315812  0.11738440  0.52853010     0.09300
H300        H  0.25826032  0.04871145  0.51049846     0.06800
H301        H  0.21878662  0.11645464  0.49807084     0.06700
C302        C  0.27289471  0.68526902  0.51419856     0.03700
C303        C  0.25770128  0.69637867  0.49647316    -0.12400
C304        C  0.24317466  0.68228645  0.48041502     0.01200
C305        C  0.24376470  0.65650895  0.48207040    -0.11000
C306        C  0.25950403  0.64493527  0.49941405     0.03700
C307        C  0.27420226  0.65944830  0.51538400    -0.10400
H308        H  0.25671212  0.71633414  0.49553846     0.09300
H309        H  0.23213782  0.64554331  0.46995281     0.06800
H310        H  0.28585533  0.65072784  0.52918636     0.06700
C311        C  0.00799527  0.75026400  0.15322033     0.03700
C312        C  0.02302803  0.76725424  0.16631654    -0.12400
C313        C  0.02473467  0.76589858  0.19234859     0.01200
C314        C  0.01134258  0.74781851  0.20494040    -0.11000
C315        C  0.99614689  0.73125622  0.19228282     0.03700
C316        C  0.99454389  0.73235939  0.16644132    -0.10400
H317        H  0.03326043  0.78127199  0.15639253     0.09300
H318        H  0.01227344  0.74700331  0.22498307     0.06800
H319        H  0.98252572  0.71962428  0.15668013     0.06700
C320        C  0.15256024  0.99211467  0.75666837     0.03700
C321        C  0.16533293  0.00744159  0.77347322    -0.12400
C322        C  0.19141415  0.00691456  0.77457095     0.01200
C323        C  0.20458610  0.99079091  0.75927186    -0.11000
C324        C  0.19230148  0.97482734  0.74304140     0.03700
C325        C  0.16619567  0.97597843  0.74123706    -0.10400
H326        H  0.15504783  0.01986637  0.78541976     0.09300
H327        H  0.22476568  0.99052178  0.76017820     0.06800
H328        H  0.15651423  0.96393028  0.72847819     0.06700
C329        C  0.76026348  0.15579717  0.98954480     0.03700
C330        C  0.77719843  0.16848739  0.00502060    -0.12400
C331        C  0.77812755  0.19440501  0.00473716     0.01200
C332        C  0.76315282  0.20738345  0.98816397    -0.11000
C333        C  0.74619004  0.19527399  0.97292075     0.03700
C334        C  0.74442950  0.16944927  0.97381753    -0.10400
H335        H  0.78887072  0.15832282  0.01777312     0.09300
H336        H  0.76389183  0.22736321  0.98794614     0.06800
H337        H  0.73110313  0.16003750  0.96214008     0.06700
C338        C  0.52437440  0.73234683  0.81197673     0.03700
C339        C  0.52506326  0.73102719  0.83792196    -0.12400
C340        C  0.51161738  0.74827172  0.85225723     0.01200
C341        C  0.49713964  0.76644424  0.84029437    -0.11000
C342        C  0.49618768  0.76727848  0.81434701     0.03700
C343        C  0.51028905  0.75062589  0.80054390    -0.10400
H344        H  0.53583271  0.71670624  0.84685403     0.09300
H345        H  0.48607035  0.77923888  0.85107457     0.06800
H346        H  0.50942127  0.75121929  0.78048033     0.06700
C347        C  0.51250475  0.75871857  0.37715749     0.03700
C348        C  0.51969178  0.73736580  0.39021616    -0.12400
C349        C  0.51818503  0.73672470  0.41613362     0.01200
C350        C  0.50935224  0.75726079  0.42895343    -0.11000
C351        C  0.50209589  0.77859390  0.41649530     0.03700
C352        C  0.50381766  0.77946925  0.39048179    -0.10400
H353        H  0.52654907  0.72139927  0.38026718     0.09300
H354        H  0.50815435  0.75664035  0.44900498     0.06800
H355        H  0.49806310  0.79590787  0.38070607     0.06700
C356        C  0.75310261  0.85463038  0.50470404     0.03700
C357        C  0.73691665  0.84021479  0.51926303    -0.12400
C358        C  0.73900078  0.81442079  0.51918807     0.01200
C359        C  0.75666177  0.80307409  0.50405559    -0.11000
C360        C  0.77237837  0.81686634  0.48890514     0.03700
C361        C  0.77095674  0.84278107  0.48951980    -0.10400
H362        H  0.72301764  0.84903082  0.53080905     0.09300
H363        H  0.75774572  0.78311499  0.50357731     0.06800
H364        H  0.78312256  0.85358905  0.47784109     0.06700
C365        C  0.42409718  0.51035469  0.73353061     0.03700
C366        C  0.43658046  0.50436937  0.75526663    -0.12400
C367        C  0.42364179  0.49848095  0.77682204     0.01200
C368        C  0.39747211  0.49802076  0.77647851    -0.11000
C369        C  0.38443436  0.50346391  0.75441141     0.03700
C370        C  0.39797760  0.50968740  0.73291736    -0.10400
H371        H  0.45677264  0.50499947  0.75558423     0.09300
H372        H  0.38734839  0.49369089  0.79324489     0.06800
H373        H  0.38825692  0.51472695  0.71610251     0.06700
C374        C  0.81871009  0.52019186  0.73197645     0.03700
C375        C  0.80631807  0.50581943  0.74938255    -0.12400
C376        C  0.81934731  0.49242311  0.76713622     0.01200
C377        C  0.84541906  0.49367792  0.76793798    -0.11000
C378        C  0.85843968  0.50803054  0.75046764     0.03700
C379        C  0.84486941  0.52133529  0.73245090    -0.10400
H380        H  0.78612436  0.50505927  0.74912761     0.09300
H381        H  0.85549846  0.48309700  0.78164762     0.06800
H382        H  0.85457542  0.53253169  0.71897314     0.06700
C383        C  0.75693063  0.38176339  0.50566568     0.03700
C384        C  0.77843492  0.39535059  0.49918866    -0.12400
C385        C  0.77695247  0.42116967  0.49630977     0.01200
C386        C  0.75410666  0.43299425  0.50004649    -0.11000
C387        C  0.73302314  0.41997230  0.50722558     0.03700
C388        C  0.73435632  0.39438691  0.50990025    -0.10400
H389        H  0.79597310  0.38594732  0.49619649     0.09300
H390        H  0.75283986  0.45283594  0.49798654     0.06800
H391        H  0.71789207  0.38434265  0.51551633     0.06700
C392        C  0.69392089  0.51538862  0.26851843     0.03700
C393        C  0.66785526  0.51283358  0.26882843    -0.12400
C394        C  0.65632965  0.49397977  0.25485266     0.01200
C395        C  0.67139690  0.47695729  0.24175576    -0.11000
C396        C  0.69757642  0.47935404  0.24178264     0.03700
C397        C  0.70821881  0.49906666  0.25460653    -0.10400
H398        H  0.65664093  0.52546053  0.27965132     0.09300
H399        H  0.66276237  0.46172288  0.23209264     0.06800
H400        H  0.72826913  0.50140259  0.25443434     0.06700
O401        O  0.10360136  0.38019040  0.67243548    -0.77900
C402        C  0.17250613  0.41348973  0.64832724     0.83100
O403        O  0.06839488  0.42673764  0.61330995    -0.79000
O404        O  0.15410891  0.41909248  0.57462418    -0.80500
O405        O  0.13282167  0.33285249  0.60892059    -0.80300
O406        O  0.08875015  0.34934643  0.64983208    -0.78900
Zn407      Zn  0.11600334  0.40538062  0.64742468     1.55700
O408        O  0.16043349  0.35583955  0.58867441    -0.80300
Cd409      Cd  0.10400133  0.35690659  0.61551585     1.59700
Cd410      Cd  0.09531896  0.40966945  0.59216117     1.59600
O411        O  0.08002483  0.35007505  0.58601717    -0.80300
O412        O  0.11680323  0.39093396  0.61481597    -1.90800
Cd413      Cd  0.15077199  0.39112520  0.60084277     1.59900
O414        O  0.08008878  0.38592159  0.56602390    -0.80300
O415        O  0.17539551  0.40181415  0.62806254    -0.78900
C416        C  0.06993115  0.43552438  0.63514613     0.83600
C417        C  0.09164572  0.35994032  0.67069316     0.83300
O418        O  0.15083226  0.41774769  0.65725972    -0.77900
C419        C  0.15233861  0.33483710  0.59565844     0.84100
O420        O  0.08903732  0.43167548  0.64872426    -0.78000
C421        C  0.07480293  0.36302008  0.56702121     0.84200
C422        C  0.13938176  0.43662590  0.56872193     0.84500
O423        O  0.11645041  0.43632814  0.57482946    -0.80400
O424        O  0.61647358  0.13014200  0.33245550    -0.77900
C425        C  0.68124058  0.09329799  0.36339199     0.83100
O426        O  0.57392700  0.08382079  0.38828253    -0.79000
O427        O  0.65544999  0.08781919  0.43582026    -0.80500
O428        O  0.63688230  0.17437041  0.40028076    -0.80300
O429        O  0.59729252  0.15959801  0.35382354    -0.78900
Zn430      Zn  0.62489489  0.10378199  0.35808802     1.55700
O431        O  0.66339904  0.15138212  0.42205505    -0.80300
Cd432      Cd  0.60924838  0.15079670  0.38976147     1.59700
Cd433      Cd  0.60024538  0.09794204  0.41148087     1.59600
O434        O  0.58342979  0.15683336  0.41810759    -0.80300
O435        O  0.62310702  0.11707540  0.39104751    -1.90800
Cd436      Cd  0.65520910  0.11593650  0.40893692     1.59900
O437        O  0.58479561  0.12092034  0.43764878    -0.80300
O438        O  0.68213485  0.10447568  0.38412460    -0.78900
C439        C  0.57575388  0.07684837  0.36583250     0.83600
C440        C  0.60362938  0.14994007  0.33311536     0.83300
O441        O  0.66047800  0.09023653  0.35200900    -0.77900
C442        C  0.65518232  0.17244183  0.41507281     0.84100
O443        O  0.59582245  0.07977419  0.35340053    -0.78000
C444        C  0.57894751  0.14367745  0.43714586     0.84200
C445        C  0.64047409  0.06978179  0.43907678     0.84500
O446        O  0.61890540  0.06996699  0.42936401    -0.80400
C447        C  0.50842811  0.24813171  0.62905408     0.03700
C448        C  0.49800461  0.26857477  0.61675986    -0.12400
C449        C  0.49605589  0.26867821  0.59092611     0.01200
C450        C  0.50492842  0.24868647  0.57732225    -0.11000
C451        C  0.51547350  0.22825073  0.58896302     0.03700
C452        C  0.51723888  0.22788687  0.61499929    -0.10400
H453        H  0.49100007  0.28411194  0.62728333     0.09300
H454        H  0.50363157  0.24907597  0.55728106     0.06800
H455        H  0.52553531  0.21217290  0.62419433     0.06700
O456        O  0.40530837  0.36842772  0.33838619    -0.77900
C457        C  0.33838421  0.40191783  0.35875743     0.83100
O458        O  0.44296028  0.41711490  0.39310680    -0.79000
O459        O  0.35569366  0.41179619  0.43137302    -0.80500
O460        O  0.38034119  0.32373446  0.40580016    -0.80300
O461        O  0.42210757  0.33825573  0.36066953    -0.78900
Zn462      Zn  0.39448254  0.39490739  0.36159319     1.55700
O463        O  0.35116728  0.34755140  0.42273698    -0.80300
Cd464      Cd  0.40802616  0.34800027  0.39568505     1.59700
Cd465      Cd  0.41471671  0.40288534  0.41496513     1.59600
O466        O  0.43231145  0.34501373  0.42593656    -0.80300
O467        O  0.39383265  0.38163377  0.39425633    -1.90800
Cd468      Cd  0.35953854  0.38189849  0.40729839     1.59900
O469        O  0.42876129  0.38201715  0.44354519    -0.80300
O470        O  0.33498471  0.38972508  0.37864307    -0.78900
C471        C  0.44192331  0.42344151  0.37039156     0.83600
C472        C  0.41729777  0.34826446  0.33973627     0.83300
O473        O  0.36021807  0.40723293  0.35104708    -0.77900
C474        C  0.36061682  0.32628505  0.41872699     0.84100
O475        O  0.42230064  0.41982150  0.35762765    -0.78000
C476        C  0.43544560  0.35949544  0.44436432     0.84200
C477        C  0.36969692  0.43033830  0.43562185     0.84500
O478        O  0.39261240  0.43040547  0.42941288    -0.80400
C479        C  0.58978795  0.47963561  0.27451606     0.03700
C480        C  0.57652289  0.48795990  0.25396284    -0.12400
C481        C  0.58853119  0.49881102  0.23387355     0.01200
C482        C  0.61474707  0.50063246  0.23401299    -0.11000
C483        C  0.62865089  0.49174896  0.25442155     0.03700
C484        C  0.61591329  0.48140753  0.27477007    -0.10400
H485        H  0.55635465  0.48685534  0.25406151     0.09300
H486        H  0.62422080  0.50913812  0.21855005     0.06800
H487        H  0.62622731  0.47511523  0.29079432     0.06700
C488        C  0.50351560  0.72531330  0.91822925     0.03700
C489        C  0.50349083  0.72594512  0.89222201    -0.12400
C490        C  0.51217100  0.74705608  0.87966175     0.01200
C491        C  0.52084139  0.76737519  0.89341356    -0.11000
C492        C  0.52091022  0.76655981  0.91935204     0.03700
C493        C  0.51222913  0.74561436  0.93146716    -0.10400
H494        H  0.49649292  0.71033675  0.88187671     0.09300
H495        H  0.52741929  0.78371471  0.88400078     0.06800
H496        H  0.51208226  0.74517204  0.95155228     0.06700
O497        O  0.38227599  0.55958877  0.09664356    -0.77900
C498        C  0.44730084  0.57301312  0.13815871     0.83100
O499        O  0.34730869  0.61573415  0.15178948    -0.79000
O500        O  0.43630021  0.64761827  0.14921577    -0.80500
O501        O  0.41399356  0.62685162  0.05896291    -0.80300
O502        O  0.36837440  0.58597853  0.06825760    -0.78900
Zn503      Zn  0.39213908  0.58024569  0.12613629     1.55700
O504        O  0.44433638  0.63863636  0.08463599    -0.80300
Cd505      Cd  0.38437379  0.61819060  0.08132586     1.59700
Cd506      Cd  0.37608763  0.63591059  0.13673461     1.59600
O507        O  0.36095671  0.64852068  0.07806858    -0.80300
O508        O  0.39644408  0.61398120  0.11573749    -1.90800
Cd509      Cd  0.43190188  0.62406800  0.11855884     1.59900
O510        O  0.36159989  0.66456519  0.11598591    -0.80300
O511        O  0.45303732  0.59324513  0.12760053    -0.78900
C512        C  0.34490932  0.59268865  0.15545631     0.83600
C513        C  0.37123753  0.56406560  0.07624068     0.83300
O514        O  0.42459676  0.56642568  0.14091903    -0.77900
C515        C  0.43526234  0.63644404  0.06282951     0.84100
O516        O  0.36184385  0.57746360  0.14884443    -0.78000
C517        C  0.35588321  0.66591290  0.09313468     0.84200
C518        C  0.42117799  0.65428842  0.16629994     0.84500
O519        O  0.39789468  0.65037643  0.16447158    -0.80400
C520        C  0.28157805  0.57848454  0.49747901     0.03700
C521        C  0.28144103  0.60427999  0.49544794    -0.12400
C522        C  0.25981331  0.61775434  0.50153499     0.01200
C523        C  0.23833585  0.60514928  0.50950542    -0.11000
C524        C  0.23858766  0.57938938  0.51146967     0.03700
C525        C  0.26012629  0.56634994  0.50541883    -0.10400
H526        H  0.29792918  0.61377714  0.48897580     0.09300
H527        H  0.22159749  0.61531397  0.51414906     0.06800
H528        H  0.26006290  0.54639402  0.50655896     0.06700
O529        O  0.56730521  0.90903500  0.12214366    -0.77900
C530        C  0.58579698  0.86875416  0.05809366     0.83100
O531        O  0.62520922  0.85851902  0.15857284    -0.79000
O532        O  0.65893368  0.85980744  0.07037372    -0.80500
O533        O  0.63655457  0.94976004  0.09340899    -0.80300
O534        O  0.59320726  0.93717119  0.13788991    -0.78900
Zn535      Zn  0.58976180  0.88067966  0.11308025     1.55700
O536        O  0.64935095  0.92530287  0.06275423    -0.80300
Cd537      Cd  0.62703824  0.92657990  0.12221937     1.59700
Cd538      Cd  0.64484496  0.87185110  0.12932266     1.59600
O539        O  0.65737597  0.92898816  0.14640049    -0.80300
O540        O  0.62336963  0.89283060  0.10935657    -1.90800
Cd541      Cd  0.63561178  0.89074250  0.07481526     1.59900
O542        O  0.67395949  0.89158108  0.14329827    -0.80300
O543        O  0.60573720  0.88055153  0.05344541    -0.78900
C544        C  0.60220311  0.85399145  0.16123727     0.83600
C545        C  0.57128651  0.92866251  0.13450224     0.83300
O546        O  0.57818890  0.86532930  0.08029993    -0.77900
C547        C  0.64640443  0.94685480  0.07213629     0.84100
O548        O  0.58662510  0.85847617  0.14390816    -0.78000
C549        C  0.67524046  0.91388944  0.15032114     0.84200
C550        C  0.66197574  0.84160186  0.08510969     0.84500
O551        O  0.65689469  0.84323776  0.10802579    -0.80400
C552        C  0.74285471  0.68918125  0.02299593     0.03700
C553        C  0.74237780  0.66334844  0.02331351    -0.12400
C554        C  0.76045081  0.64977446  0.01006128     0.01200
C555        C  0.77862458  0.66241552  0.99617557    -0.11000
C556        C  0.77878286  0.68827477  0.99581591     0.03700
C557        C  0.76108136  0.70133603  0.00939410    -0.10400
H558        H  0.72808936  0.65389828  0.03374490     0.09300
H559        H  0.79210602  0.65224176  0.98529795     0.06800
H560        H  0.76102232  0.72133560  0.00876206     0.06700
O561        O  0.90171783  0.12978416  0.67660250    -0.77900
C562        C  0.83669589  0.09417642  0.65224516     0.83100
O563        O  0.93985477  0.07529119  0.62194165    -0.79000
O564        O  0.85463288  0.08606507  0.58090426    -0.80500
O565        O  0.88299940  0.17261849  0.60798552    -0.80300
O566        O  0.92250211  0.15666179  0.65348509    -0.78900
Zn567      Zn  0.89296869  0.10206380  0.65333816     1.55700
O568        O  0.85130288  0.15080752  0.59300988    -0.80300
Cd569      Cd  0.90963163  0.14694790  0.61817911     1.59700
Cd570      Cd  0.91336327  0.09142057  0.59995528     1.59600
O571        O  0.93584691  0.14738450  0.58930383    -0.80300
O572        O  0.89366050  0.11430569  0.62003237    -1.90800
Cd573      Cd  0.85988215  0.11540308  0.60556141     1.59900
O574        O  0.93140510  0.11030441  0.57233072    -0.80300
O575        O  0.83462037  0.10701029  0.63266160    -0.78900
C576        C  0.93982717  0.07088038  0.64506980     0.83600
C577        C  0.91534010  0.14892568  0.67467238     0.83300
O578        O  0.85799430  0.08905111  0.66157008    -0.77900
C579        C  0.86175978  0.17149388  0.59754751     0.84100
O580        O  0.92155674  0.07756439  0.65865358    -0.78000
C581        C  0.94015113  0.13211158  0.57175339     0.84200
C582        C  0.86744188  0.06633934  0.57815501     0.84500
O583        O  0.88990085  0.06516816  0.58553947    -0.80400
C584        C  0.69250020  0.98471807  0.76392725     0.03700
C585        C  0.66645557  0.98514005  0.76584084    -0.12400
C586        C  0.65251194  0.00139428  0.75100069     0.01200
C587        C  0.66484812  0.01740115  0.73457749    -0.11000
C588        C  0.69091333  0.01726031  0.73323111     0.03700
C589        C  0.70445552  0.00066739  0.74761425    -0.10400
H590        H  0.65714428  0.97293231  0.77866351     0.09300
H591        H  0.65427535  0.03019542  0.72335989     0.06800
H592        H  0.72464005  0.00059111  0.74654908     0.06700
O593        O  0.87526807  0.94035319  0.90504412    -0.77900
C594        C  0.94011128  0.92152987  0.86796265     0.83100
O595        O  0.83987185  0.88315585  0.85063236    -0.79000
O596        O  0.92745813  0.84813299  0.85887456    -0.80500
O597        O  0.89997715  0.87303774  0.94688958    -0.80300
O598        O  0.85729169  0.91640577  0.93334720    -0.78900
Zn599      Zn  0.88440692  0.91805200  0.87676043     1.55700
O600        O  0.93011280  0.85776291  0.92273681    -0.80300
Cd601      Cd  0.87231299  0.88259334  0.92216381     1.59700
Cd602      Cd  0.86818216  0.86335784  0.86624769     1.59600
O603        O  0.84859212  0.85231511  0.92403018    -0.80300
O604        O  0.88685537  0.88496863  0.88851049    -1.90800
Cd605      Cd  0.92143868  0.87268763  0.88827759     1.59900
O606        O  0.85369650  0.83532224  0.88679402    -0.80300
O607        O  0.94435683  0.90197278  0.88032732    -0.78900
C608        C  0.83812158  0.90611593  0.84631587     0.83600
C609        C  0.86309969  0.93768042  0.92508572     0.83300
O610        O  0.91799590  0.92897032  0.86336536    -0.77900
C611        C  0.92020013  0.86106820  0.94399153     0.84100
O612        O  0.85514681  0.92125291  0.85273442    -0.78000
C613        C  0.84651408  0.83409243  0.90916773     0.84200
C614        C  0.91401565  0.84223577  0.84031448     0.84500
O615        O  0.89106145  0.84821752  0.83952018    -0.80400
O616        O  0.10854845  0.62759205  0.83630767    -0.77900
C617        C  0.17523637  0.59720292  0.85989937     0.83100
O618        O  0.06959055  0.57842758  0.89112329    -0.79000
O619        O  0.15521901  0.58320604  0.92993743    -0.80500
O620        O  0.12867116  0.67182298  0.90668282    -0.80300
O621        O  0.09158201  0.65794990  0.85829806    -0.78900
Zn622      Zn  0.11840128  0.60097688  0.86002601     1.55700
O623        O  0.15789051  0.64848480  0.92412429    -0.80300
Cd624      Cd  0.10220928  0.64745048  0.89400077     1.59700
Cd625      Cd  0.09669913  0.59297986  0.91313030     1.59600
O626        O  0.07461090  0.64910982  0.92145654    -0.80300
O627        O  0.11737711  0.61436352  0.89278615    -1.90800
Cd628      Cd  0.15071050  0.61443206  0.90774872     1.59900
O629        O  0.08053496  0.61335346  0.94082727    -0.80300
O630        O  0.17637616  0.60919066  0.88008642    -0.78900
C631        C  0.07092936  0.57141531  0.86867972     0.83600
C632        C  0.09715374  0.64816590  0.83747945     0.83300
O633        O  0.15421616  0.59044516  0.85093082    -0.77900
C634        C  0.14830158  0.66959682  0.91978268     0.84100
O635        O  0.09046249  0.57549804  0.85577964    -0.78000
C636        C  0.07144497  0.63504001  0.94016923     0.84200
C637        C  0.14115836  0.56448305  0.93320274     0.84500
O638        O  0.11834005  0.56499131  0.92696741    -0.80400
C639        C  0.01200686  0.74925207  0.65274815     0.03700
C640        C  0.02978526  0.73428017  0.66466710    -0.12400
C641        C  0.03183425  0.73455478  0.69053377     0.01200
C642        C  0.01576574  0.74924758  0.70450115    -0.11000
C643        C  0.99750495  0.76365822  0.69319529     0.03700
C644        C  0.99584961  0.76405923  0.66716657    -0.10400
H645        H  0.04197190  0.72253613  0.65387238     0.09300
H646        H  0.01695458  0.74882803  0.72454229     0.06800
H647        H  0.98178284  0.77526434  0.65825955     0.06700
C648        C  0.92547440  0.51316991  0.77293729     0.03700
C649        C  0.89929831  0.51363862  0.77272879    -0.12400
C650        C  0.88612885  0.50847381  0.75067640     0.01200
C651        C  0.89955738  0.50256198  0.72900938    -0.11000
C652        C  0.92568155  0.50216740  0.72933801     0.03700
C653        C  0.93830173  0.50809900  0.75103964    -0.10400
H654        H  0.88926203  0.51782688  0.78961152     0.09300
H655        H  0.88976282  0.49757084  0.71223357     0.06800
H656        H  0.95850694  0.50783960  0.75110822     0.06700
C657        C  0.31695063  0.49114565  0.73656903     0.03700
C658        C  0.30459777  0.50657452  0.75322515    -0.12400
C659        C  0.31777784  0.52078508  0.77027564     0.01200
C660        C  0.34385135  0.51943975  0.77092523    -0.11000
C661        C  0.35676235  0.50412190  0.75415224     0.03700
C662        C  0.34311862  0.49000261  0.73686076    -0.10400
H663        H  0.28441839  0.50754127  0.75291408     0.09300
H664        H  0.35404572  0.53054371  0.78414208     0.06800
H665        H  0.35276365  0.47812997  0.72388632     0.06700
C666        C  0.75119248  0.88197527  0.50545873     0.03700
C667        C  0.72973276  0.89409162  0.49632955    -0.12400
C668        C  0.72787243  0.91993182  0.49770091     0.01200
C669        C  0.74702071  0.93338889  0.50859952    -0.11000
C670        C  0.76820976  0.92181805  0.51784012     0.03700
C671        C  0.77055227  0.89608090  0.51600188    -0.10400
H672        H  0.71482933  0.88355541  0.48801013     0.09300
H673        H  0.74552776  0.95331109  0.50966686     0.06800
H674        H  0.78704297  0.88706567  0.52315159     0.06700
C675        C  0.00837002  0.23975182  0.38490709     0.03700
C676        C  0.00181531  0.21809192  0.39784457    -0.12400
C677        C  0.00410759  0.21701551  0.42372382     0.01200
C678        C  0.01311684  0.23743564  0.43658303    -0.11000
C679        C  0.01947324  0.25909293  0.42425552     0.03700
C680        C  0.01692194  0.26039293  0.39836829    -0.10400
H681        H  0.99486567  0.20222988  0.38784034     0.09300
H682        H  0.01473765  0.23663416  0.45658909     0.06800
H683        H  0.02210551  0.27710453  0.38873873     0.06700
C684        C  0.00865245  0.25267767  0.85544733     0.03700
C685        C  0.99223206  0.23608220  0.84382717    -0.12400
C686        C  0.98808477  0.23755855  0.81826943     0.01200
C687        C  0.00080714  0.25511914  0.80429691    -0.11000
C688        C  0.01762292  0.27131989  0.81539740     0.03700
C689        C  0.02137796  0.27028828  0.84109710    -0.10400
H690        H  0.98252460  0.22234862  0.85463752     0.09300
H691        H  0.99789077  0.25590438  0.78445216     0.06800
H692        H  0.03422759  0.28295167  0.84982645     0.06700
C693        C  0.50038931  0.74114397  0.31017551     0.03700
C694        C  0.49895626  0.74187281  0.33609857    -0.12400
C695        C  0.51352160  0.75881008  0.34964354     0.01200
C696        C  0.52969326  0.77488712  0.33682639    -0.11000
C697        C  0.53139538  0.77373086  0.31081867     0.03700
C698        C  0.51646121  0.75706096  0.29789213    -0.10400
H699        H  0.48658261  0.72938688  0.34567267     0.09300
H700        H  0.54133215  0.78760297  0.34701692     0.06800
H701        H  0.51744286  0.75635511  0.27782912     0.06700
C702        C  0.86194374  0.99771938  0.25654148     0.03700
C703        C  0.84728682  0.98537351  0.23872555    -0.12400
C704        C  0.82122236  0.98475355  0.24116252     0.01200
C705        C  0.80988745  0.99696328  0.26086831    -0.11000
C706        C  0.82386340  0.00930748  0.27874785     0.03700
C707        C  0.85000944  0.00975439  0.27657504    -0.10400
H708        H  0.85612829  0.97564463  0.22358384     0.09300
H709        H  0.78973365  0.99677496  0.26234071     0.06800
H710        H  0.86098171  0.01926616  0.29038380     0.06700
C711        C  0.25414337  0.85141764  0.00733397     0.03700
C712        C  0.23457375  0.83859621  0.99574608    -0.12400
C713        C  0.23389669  0.81279985  0.99645812     0.01200
C714        C  0.25243162  0.79994340  0.00910633    -0.11000
C715        C  0.27186858  0.81236112  0.02077084     0.03700
C716        C  0.27295241  0.83815752  0.01972140    -0.10400
H717        H  0.22018065  0.84860037  0.98594064     0.09300
H718        H  0.25182745  0.77996392  0.00974533     0.06800
H719        H  0.28798600  0.84782975  0.02885370     0.06700
C720        C  0.73723659  0.31536324  0.49730155     0.03700
C721        C  0.75346781  0.30320754  0.51325059    -0.12400
C722        C  0.77189567  0.31602343  0.52607896     0.01200
C723        C  0.77396186  0.34174912  0.52307669    -0.11000
C724        C  0.75714146  0.35441695  0.50746506     0.03700
C725        C  0.73904493  0.34088784  0.49435796    -0.10400
H726        H  0.75216113  0.28334822  0.51520100     0.09300
H727        H  0.78802351  0.35182590  0.53324890     0.06800
H728        H  0.72634571  0.35021965  0.48190773     0.06700
C729        C  0.19672226  0.48702201  0.27478412     0.03700
C730        C  0.17056481  0.48860705  0.27478577    -0.12400
C731        C  0.15830712  0.50459969  0.25811610     0.01200
C732        C  0.17260642  0.51913322  0.24180307    -0.11000
C733        C  0.19872748  0.51794130  0.24240928     0.03700
C734        C  0.21043909  0.50184368  0.25878098    -0.10400
H735        H  0.15985051  0.47707795  0.28715636     0.09300
H736        H  0.16347961  0.53151919  0.22898141     0.06800
H737        H  0.23061874  0.50068231  0.25893726     0.06700
C738        C  0.25845855  0.38099101  0.00414425     0.03700
C739        C  0.27908212  0.39498154  0.01200162    -0.12400
C740        C  0.27867046  0.42074824  0.00991881     0.01200
C741        C  0.25774031  0.43240024  0.00012770    -0.11000
C742        C  0.23715788  0.41889939  0.99224613     0.03700
C743        C  0.23737974  0.39308669  0.99432320    -0.10400
H744        H  0.29526394  0.38589088  0.01974341     0.09300
H745        H  0.25744182  0.45234598  0.99867315     0.06800
H746        H  0.22142919  0.38252800  0.98825820     0.06700
C747        C  0.39076867  0.00570900  0.25214954     0.03700
C748        C  0.40373643  0.01381763  0.27333063    -0.12400
C749        C  0.42985409  0.01423832  0.27338539     0.01200
C750        C  0.44286008  0.00685080  0.25228605    -0.11000
C751        C  0.43035697  0.99867945  0.23123776     0.03700
C752        C  0.40425025  0.99808045  0.23109766    -0.10400
H753        H  0.39358451  0.01978608  0.28960774     0.09300
H754        H  0.46306379  0.00717163  0.25235730     0.06800
H755        H  0.39451336  0.99143414  0.21487284     0.06700
C756        C  0.51265483  0.25842597  0.15063607     0.03700
C757        C  0.52751451  0.24048015  0.16271592    -0.12400
C758        C  0.52975872  0.24053367  0.18875734     0.01200
C759        C  0.51691858  0.25822549  0.20253176    -0.11000
C760        C  0.50161170  0.27561827  0.19112641     0.03700
C761        C  0.49964366  0.27590590  0.16516019    -0.10400
H762        H  0.53729212  0.22668868  0.15196627     0.09300
H763        H  0.51811440  0.25786173  0.22259188     0.06800
H764        H  0.48756126  0.28925948  0.15634381     0.06700
C765        C  0.25598223  0.14749778  0.51330776     0.03700
C766        C  0.23778333  0.16152495  0.52591477    -0.12400
C767        C  0.23910871  0.18742034  0.52575635     0.01200
C768        C  0.25823798  0.19904419  0.51283909    -0.11000
C769        C  0.27611998  0.18542456  0.50007749     0.03700
C770        C  0.27511167  0.15967040  0.50037093    -0.10400
H771        H  0.22304194  0.15242011  0.53603312     0.09300
H772        H  0.25913432  0.21902130  0.51258854     0.06800
H773        H  0.28903132  0.14915484  0.49039936     0.06700
C774        C  0.98865315  0.76918322  0.08820805     0.03700
C775        C  0.99239463  0.76997102  0.11397548    -0.12400
C776        C  0.00581361  0.75093861  0.12582512     0.01200
C777        C  0.01570648  0.73145441  0.11150752    -0.11000
C778        C  0.01237849  0.73113697  0.08571911     0.03700
C779        C  0.99868952  0.74983668  0.07446338    -0.10400
H780        H  0.98454013  0.78493539  0.12473991     0.09300
H781        H  0.02607728  0.71678198  0.12036133     0.06800
H782        H  0.99606360  0.74950110  0.05455565     0.06700
C783        C  0.75917630  0.12837336  0.98971406     0.03700
C784        C  0.73737136  0.11585800  0.99735925    -0.12400
C785        C  0.73676796  0.08988098  0.99755109     0.01200
C786        C  0.75755567  0.07673448  0.98957308    -0.11000
C787        C  0.77934605  0.08868199  0.98244077     0.03700
C788        C  0.78025232  0.11453774  0.98253162    -0.10400
H789        H  0.72139882  0.12619530  0.00382022     0.09300
H790        H  0.75712433  0.05672915  0.98990643     0.06800
H791        H  0.79719119  0.12381463  0.97700804     0.06700
C792        C  0.08466876  0.98734889  0.77559809     0.03700
C793        C  0.11075337  0.98568871  0.77625356    -0.12400
C794        C  0.12500004  0.99288150  0.75555689     0.01200
C795        C  0.11283559  0.00171120  0.73420714    -0.11000
C796        C  0.08675656  0.00336644  0.73367647     0.03700
C797        C  0.07296557  0.99597912  0.75424399    -0.10400
H798        H  0.11992095  0.97894076  0.79277418     0.09300
H799        H  0.12359313  0.00777603  0.71839590     0.06800
H800        H  0.05280586  0.99725895  0.75372436     0.06700
C801        C  0.15956574  0.69249037  0.93018327    -0.11400
C802        C  0.18067025  0.69253665  0.94594182     0.04100
C803        C  0.18935983  0.71476972  0.95575897    -0.11900
C804        C  0.17773335  0.73719102  0.95017427     0.18900
C805        C  0.15730270  0.73744271  0.93407707    -0.09000
C806        C  0.14835427  0.71531690  0.92436514    -0.01900
H807        H  0.20540408  0.71461035  0.96791752     0.05500
C808        C  0.18765700  0.76000240  0.96123971     0.20900
H809        H  0.13232507  0.71613008  0.91223925     0.10600
C810        C  0.20239110  0.77566735  0.94676867    -0.15300
C811        C  0.21599985  0.79471038  0.95774893     0.03600
C812        C  0.21471678  0.79834278  0.98350780    -0.10600
C813        C  0.19858865  0.78375003  0.99766697    -0.00600
C814        C  0.18511963  0.76464849  0.98672280    -0.05800
H815        H  0.20453746  0.77208760  0.92717541     0.06600
H816        H  0.19772198  0.78622424  0.01752615     0.10000
Br817      Br  0.14068431  0.76749145  0.92536309    -0.05500
Br818      Br  0.19893755  0.66350495  0.95512513    -0.02500
Br819      Br  0.23848971  0.81314145  0.93740601     0.00400
Br820      Br  0.16473003  0.74435114  0.00747708    -0.04000
C821        C  0.15214309  0.54116396  0.94295096    -0.11400
C822        C  0.13759979  0.52046634  0.94993055     0.04100
C823        C  0.14927970  0.49841097  0.95680225    -0.11900
C824        C  0.17524598  0.49628267  0.95699383     0.18900
C825        C  0.18974918  0.51674966  0.95024466    -0.09000
C826        C  0.17823365  0.53881671  0.94341361    -0.01900
H827        H  0.13801107  0.48278115  0.96219836     0.05500
C828        C  0.18703590  0.47305129  0.96539736     0.20900
H829        H  0.18993487  0.55413075  0.93800768     0.10600
C830        C  0.20042116  0.45848402  0.94850085    -0.15300
C831        C  0.21496485  0.43866006  0.95671269     0.03600
C832        C  0.21597825  0.43299217  0.98210010    -0.10600
C833        C  0.20116633  0.44645878  0.99869263    -0.00600
C834        C  0.18680260  0.46637542  0.99055680    -0.05800
H835        H  0.20064979  0.46340129  0.92909278     0.06600
H836        H  0.20234510  0.44270280  0.01832741     0.10000
Br837      Br  0.22544647  0.51570146  0.95054364    -0.05500
Br838      Br  0.10184467  0.52055353  0.95117280    -0.02500
Br839      Br  0.23531350  0.42154109  0.93313053     0.00400
Br840      Br  0.16956427  0.48565989  0.01491754    -0.04000
C841        C  0.05879083  0.64454839  0.96265318    -0.11400
C842        C  0.04015168  0.66290073  0.96189618     0.04100
C843        C  0.03193703  0.67385698  0.98393264    -0.11900
C844        C  0.04194839  0.66681387  0.00685105     0.18900
C845        C  0.05917470  0.64737841  0.00778274    -0.09000
C846        C  0.06735153  0.63636727  0.98585333    -0.01900
H847        H  0.01834687  0.68859995  0.98313874     0.05500
C848        C  0.03650364  0.68186031  0.02902410     0.20900
H849        H  0.08156102  0.62222588  0.98695513     0.10600
C850        C  0.01977886  0.67343632  0.04707873    -0.15300
C851        C  0.01311304  0.68853354  0.06712925     0.03600
C852        C  0.02346299  0.71225302  0.06933964    -0.10600
C853        C  0.04110137  0.72004400  0.05188782    -0.00600
C854        C  0.04759695  0.70513131  0.03185407    -0.05800
H855        H  0.01123211  0.65549521  0.04506629     0.06600
H856        H  0.04886678  0.73840588  0.05315987     0.10000
Br857      Br  0.07357176  0.63669757  0.03840963    -0.05500
Br858      Br  0.02502212  0.67354809  0.93157657    -0.02500
Br859      Br  0.98821576  0.67703909  0.08971010     0.00400
Br860      Br  0.07100864  0.71769875  0.00820862    -0.04000
C861        C  0.19893842  0.59071848  0.84687281    -0.11400
C862        C  0.22279428  0.59329792  0.85808203     0.04100
C863        C  0.24410317  0.58480787  0.84581132    -0.11900
C864        C  0.24260312  0.57437497  0.82222917     0.18900
C865        C  0.21929249  0.57297682  0.81043878    -0.09000
C866        C  0.19779746  0.58093745  0.82277194    -0.01900
H867        H  0.26204380  0.58601770  0.85491701     0.05500
C868        C  0.26506580  0.56295219  0.81119577     0.20900
H869        H  0.18002859  0.57910841  0.81348757     0.10600
C870        C  0.27315543  0.54011328  0.82028859    -0.15300
C871        C  0.29217138  0.52706386  0.80837571     0.03600
C872        C  0.30336549  0.53684323  0.78702914    -0.10600
C873        C  0.29647928  0.56043243  0.77892914    -0.00600
C874        C  0.27763167  0.57363606  0.79103698    -0.05800
H875        H  0.26388923  0.53192427  0.83606051     0.06600
H876        H  0.30492732  0.56806108  0.76243843     0.10000
Br877      Br  0.21576160  0.55931051  0.77788316    -0.05500
Br878      Br  0.22848723  0.60742597  0.89024584    -0.02500
Br879      Br  0.30119494  0.49520185  0.82076449     0.00400
Br880      Br  0.26909435  0.60577816  0.77908203    -0.04000
C881        C  0.04858740  0.55939770  0.85754975    -0.11400
C882        C  0.04601539  0.55503795  0.83181319     0.04100
C883        C  0.02347224  0.54615663  0.82241148    -0.11900
C884        C  0.00309846  0.54165260  0.83792773     0.18900
C885        C  0.00560400  0.54534039  0.86347646    -0.09000
C886        C  0.02812648  0.55404090  0.87307067    -0.01900
H887        H  0.02162562  0.54317034  0.80267611     0.05500
C888        C  0.97959145  0.53302322  0.82667436     0.20900
H889        H  0.02936118  0.55705034  0.89283440     0.10600
C890        C  0.97813742  0.50861164  0.81848386    -0.15300
C891        C  0.95865190  0.50101390  0.80319092     0.03600
C892        C  0.94048115  0.51814062  0.79537374    -0.10600
C893        C  0.94068840  0.54197476  0.80542550    -0.00600
C894        C  0.96007360  0.54947392  0.82107507    -0.05800
H895        H  0.99286522  0.49574385  0.82301588     0.06600
H896        H  0.92689130  0.55531301  0.79959065     0.10000
Br897      Br  0.97867751  0.53890405  0.88583002    -0.05500
Br898      Br  0.07162431  0.56160000  0.80790097    -0.02500
Br899      Br  0.95854841  0.46740926  0.79208062     0.00400
Br900      Br  0.96039931  0.58291361  0.83249699    -0.04000
C901        C  0.04875130  0.71800373  0.70411565    -0.11400
C902        C  0.07000455  0.72733831  0.71612241     0.04100
C903        C  0.08086233  0.71408972  0.73554018    -0.11900
C904        C  0.07062644  0.69165003  0.74326390     0.18900
C905        C  0.05057456  0.68147638  0.73003650    -0.09000
C906        C  0.03987440  0.69461050  0.71050850    -0.01900
H907        H  0.09629271  0.72202994  0.74564121     0.05500
C908        C  0.07838959  0.68109085  0.76720663     0.20900
H909        H  0.02325714  0.68751137  0.70172749     0.10600
C910        C  0.06613315  0.68891854  0.78870623    -0.15300
C911        C  0.07184884  0.67877591  0.81181179     0.03600
C912        C  0.09054189  0.66046658  0.81373020    -0.10600
C913        C  0.10291054  0.65290582  0.79193883    -0.00600
C914        C  0.09692867  0.66297301  0.76888418    -0.05800
H915        H  0.05158830  0.70271856  0.78738413     0.06600
H916        H  0.11729978  0.63892620  0.79271200     0.10000
Br917      Br  0.03553513  0.65100049  0.73976105    -0.05500
Br918      Br  0.08323817  0.75911284  0.70813270    -0.02500
Br919      Br  0.05213530  0.68987865  0.83929462     0.00400
Br920      Br  0.11412664  0.65117511  0.74011785    -0.04000
C921        C  0.96178492  0.93519905  0.85827459    -0.11400
C922        C  0.96195529  0.94529828  0.83421324     0.04100
C923        C  0.98399291  0.95502129  0.82458630    -0.11900
C924        C  0.00605496  0.95476603  0.83839551     0.18900
C925        C  0.00576682  0.94558665  0.86267630    -0.09000
C926        C  0.98376611  0.93585314  0.87239769    -0.01900
H927        H  0.98417697  0.96199357  0.80578267     0.05500
C928        C  0.02928137  0.96298631  0.82640620     0.20900
H929        H  0.98397702  0.92824462  0.89093796     0.10600
C930        C  0.03349649  0.98823687  0.82338047    -0.15300
C931        C  0.05301330  0.99659033  0.80849480     0.03600
C932        C  0.06874318  0.97954064  0.79645196    -0.10600
C933        C  0.06540695  0.95429231  0.80070670    -0.00600
C934        C  0.04570473  0.94593388  0.81541605    -0.05800
H935        H  0.02088938  0.00143780  0.83169948     0.06600
H936        H  0.07699797  0.94103084  0.79113214     0.10000
Br937      Br  0.03510872  0.94546596  0.88284004    -0.05500
Br938      Br  0.93365100  0.94401998  0.81256724    -0.02500
Br939      Br  0.05652170  0.03143352  0.80387755     0.00400
Br940      Br  0.04035835  0.91110400  0.81791791    -0.04000
C941        C  0.85501297  0.96017341  0.93822871    -0.11400
C942        C  0.87157547  0.97997969  0.94205791     0.04100
C943        C  0.86264064  0.00259144  0.95080982    -0.11900
C944        C  0.83731482  0.00584876  0.95585317     0.18900
C945        C  0.82089477  0.98583362  0.95302815    -0.09000
C946        C  0.82983831  0.96313993  0.94443827    -0.01900
H947        H  0.87541747  0.01782370  0.95328217     0.05500
C948        C  0.82790314  0.03038913  0.96309232     0.20900
H949        H  0.81686960  0.94816069  0.94143481     0.10600
C950        C  0.81976246  0.04666140  0.94463299    -0.15300
C951        C  0.80622401  0.06786178  0.95081349     0.03600
C952        C  0.80074749  0.07293235  0.97576265    -0.10600
C953        C  0.81088304  0.05777177  0.99426295    -0.00600
C954        C  0.82438932  0.03660970  0.98808785    -0.05800
H955        H  0.82256882  0.04204023  0.92533862     0.06600
H956        H  0.80653086  0.06133080  0.01350592     0.10000
Br957      Br  0.78592490  0.98917411  0.95951457    -0.05500
Br958      Br  0.90663131  0.97694679  0.93593180    -0.02500
Br959      Br  0.79302109  0.08766665  0.92456864     0.00400
Br960      Br  0.83570083  0.01552916  0.01421174    -0.04000
C961        C  0.93161403  0.84980061  0.96605484    -0.11400
C962        C  0.93638812  0.82431566  0.96700734     0.04100
C963        C  0.94485690  0.81363788  0.98899243    -0.11900
C964        C  0.94800310  0.82779536  0.01055423     0.18900
C965        C  0.94356592  0.85339108  0.00945533    -0.09000
C966        C  0.93531922  0.86411714  0.98736322    -0.01900
H967        H  0.94839792  0.79398131  0.98944632     0.05500
C968        C  0.95594207  0.81540562  0.03379761     0.20900
H969        H  0.93134130  0.88369179  0.98693034     0.10600
C970        C  0.97845792  0.82224278  0.04506560    -0.15300
C971        C  0.98793902  0.80903121  0.06521203     0.03600
C972        C  0.97513483  0.78832937  0.07418520    -0.10600
C973        C  0.95200330  0.78223130  0.06380748    -0.00600
C974        C  0.94227519  0.79563672  0.04390802    -0.05800
H975        H  0.98930004  0.83720536  0.03744673     0.06600
H976        H  0.94222189  0.76602872  0.07021739     0.10000
Br977      Br  0.94708018  0.87430795  0.03786627    -0.05500
Br978      Br  0.92904817  0.80291898  0.93964762    -0.02500
Br979      Br  0.01971327  0.81827735  0.07832866     0.00400
Br980      Br  0.91066884  0.78559675  0.03074063    -0.04000
C981        C  0.92507292  0.82889897  0.81860780    -0.11400
C982        C  0.95026322  0.82102439  0.81751351     0.04100
C983        C  0.95978602  0.81075071  0.79560369    -0.11900
C984        C  0.94482512  0.80782075  0.77452486     0.18900
C985        C  0.91957429  0.81443364  0.77589933    -0.09000
C986        C  0.90999566  0.82488644  0.79760860    -0.01900
H987        H  0.97912450  0.80516405  0.79491508     0.05500
C988        C  0.95602203  0.79803440  0.75130505     0.20900
H989        H  0.89062911  0.83036734  0.79773742     0.10600
C990        C  0.94910227  0.77466930  0.74258371    -0.15300
C991        C  0.96087342  0.76420375  0.72193254     0.03600
C992        C  0.98005638  0.77701835  0.70969162    -0.10600
C993        C  0.98621348  0.80080294  0.71772832    -0.00600
C994        C  0.97426153  0.81139824  0.73823227    -0.05800
H995        H  0.93503176  0.76422217  0.75233560     0.06600
H996        H  0.00120167  0.81068811  0.70876555     0.10000
Br997      Br  0.89761949  0.81064335  0.74819091    -0.05500
Br998      Br  0.97304978  0.82335502  0.84481210    -0.02500
Br999      Br  0.95124503  0.73171661  0.71183891     0.00400
Br1000     Br  0.98369575  0.84404311  0.74798489    -0.04000
C1001       C  0.81528763  0.91540515  0.83434602    -0.11400
C1002       C  0.79150629  0.90701976  0.84172886     0.04100
C1003       C  0.77015061  0.91659108  0.83054282    -0.11900
C1004       C  0.77198619  0.93433508  0.81193942     0.18900
C1005       C  0.79560871  0.94256485  0.80433735    -0.09000
C1006       C  0.81703890  0.93327134  0.81571783    -0.01900
H1007       H  0.75197735  0.91044206  0.83663662     0.05500
C1008       C  0.74904791  0.94499249  0.80150344     0.20900
H1009       H  0.83513025  0.93983649  0.80983701     0.10600
C1010       C  0.73948917  0.96668378  0.81188770    -0.15300
C1011       C  0.71926666  0.97870071  0.80101135     0.03600
C1012       C  0.70828235  0.96894023  0.77952303    -0.10600
C1013       C  0.71703402  0.94653498  0.76987650    -0.00600
C1014       C  0.73726898  0.93446261  0.78081748    -0.05800
H1015       H  0.74840687  0.97477471  0.82790145     0.06600
H1016       H  0.70905221  0.93919613  0.75302551     0.10000
Br1017     Br  0.79935330  0.96632287  0.77839372    -0.05500
Br1018     Br  0.78675386  0.88392656  0.86820200    -0.02500
Br1019     Br  0.70852469  0.00949963  0.81479287     0.00400
Br1020     Br  0.74933339  0.90459589  0.76608754    -0.04000
C1021       C  0.92330442  0.16160575  0.69796333    -0.11400
C1022       C  0.93616351  0.18439145  0.69831203     0.04100
C1023       C  0.94408385  0.19444918  0.72087210    -0.11900
C1024       C  0.93925683  0.18258235  0.74337711     0.18900
C1025       C  0.92566192  0.16057038  0.74331133    -0.09000
C1026       C  0.91802722  0.15020397  0.72085368    -0.01900
H1027       H  0.95420574  0.21168251  0.72087544     0.05500
C1028       C  0.94882361  0.19360179  0.76655959     0.20900
H1029       H  0.90793576  0.13297116  0.72144930     0.10600
C1030       C  0.93783353  0.21525097  0.77563852    -0.15300
C1031       C  0.94898170  0.22846266  0.79490759     0.03600
C1032       C  0.97167857  0.22027896  0.80499892    -0.10600
C1033       C  0.98157916  0.19764131  0.79731005    -0.00600
C1034       C  0.97027244  0.18422465  0.77827434    -0.05800
H1035       H  0.92111628  0.22239553  0.76704046     0.06600
H1036       H  0.99912841  0.19130587  0.80484205     0.10000
Br1037     Br  0.91664671  0.14440828  0.77353833    -0.05500
Br1038     Br  0.94314634  0.20344168  0.66921284    -0.02500
Br1039     Br  0.93347044  0.25832144  0.80602859     0.00400
Br1040     Br  0.98616076  0.15447749  0.76737119    -0.04000
C1041       C  0.95431708  0.13991797  0.54928085    -0.11400
C1042       C  0.96679121  0.16281961  0.54746697     0.04100
C1043       C  0.97614198  0.17064582  0.52459678    -0.11900
C1044       C  0.97388849  0.15598814  0.50336783     0.18900
C1045       C  0.96348318  0.13240894  0.50543626    -0.09000
C1046       C  0.95376051  0.12460373  0.52813853    -0.01900
H1047       H  0.98468499  0.18865302  0.52319552     0.05500
C1048       C  0.98057514  0.16676005  0.47911755     0.20900
H1049       H  0.94490739  0.10671357  0.52889712     0.10600
C1050       C  0.00535269  0.16613839  0.47098978    -0.15300
C1051       C  0.01295044  0.18050441  0.45081949     0.03600
C1052       C  0.99564891  0.19572893  0.43853123    -0.10600
C1053       C  0.97054240  0.19483549  0.44552509    -0.00600
C1054       C  0.96295380  0.18054427  0.46568456    -0.05800
H1055       H  0.01902537  0.15555626  0.48115885     0.06600
H1056       H  0.95717084  0.20679822  0.43657110     0.10000
Br1057     Br  0.96146837  0.11066911  0.47754316    -0.05500
Br1058     Br  0.97210337  0.18446863  0.57508299    -0.02500
Br1059     Br  0.04746367  0.18040328  0.44183477     0.00400
Br1060     Br  0.92879086  0.18235555  0.47583938    -0.04000
C1061       C  0.07287993  0.01434277  0.71288736    -0.11400
C1062       C  0.06040693  0.99927529  0.69572452     0.04100
C1063       C  0.04040993  0.00877448  0.68208918    -0.11900
C1064       C  0.03276780  0.03334553  0.68516568     0.18900
C1065       C  0.04683515  0.04895344  0.70064974    -0.09000
C1066       C  0.06659563  0.03934629  0.71444717    -0.01900
H1067       H  0.02990806  0.99657485  0.67015779     0.05500
C1068       C  0.00864019  0.04160476  0.67459115     0.20900
H1069       H  0.07595283  0.05104574  0.72776015     0.10600
C1070       C  0.98967549  0.04918421  0.69075686    -0.15300
C1071       C  0.96695019  0.05823231  0.68190982     0.03600
C1072       C  0.96233962  0.05896262  0.65609267    -0.10600
C1073       C  0.98115854  0.05029665  0.64002374    -0.00600
C1074       C  0.00412795  0.04198339  0.64899064    -0.05800
H1075       H  0.99288296  0.04870002  0.71053692     0.06600
H1076       H  0.97844051  0.05076551  0.62018185     0.10000
Br1077     Br  0.03903925  0.08324919  0.70453234    -0.05500
Br1078     Br  0.06883240  0.96515444  0.69201796    -0.02500
Br1079     Br  0.94435939  0.07074561  0.70649618     0.00400
Br1080     Br  0.02934521  0.03316477  0.62543713    -0.04000
C1081       C  0.78869514  0.30126115  0.54190470    -0.11400
C1082       C  0.81189798  0.29316291  0.53287803     0.04100
C1083       C  0.82420427  0.27349839  0.54439058    -0.11900
C1084       C  0.81348381  0.26139691  0.56466300     0.18900
C1085       C  0.79086845  0.27016595  0.57441872    -0.09000
C1086       C  0.77868332  0.28997491  0.56306369    -0.01900
H1087       H  0.84151518  0.26673955  0.53666786     0.05500
C1088       C  0.82503397  0.23839595  0.57386780     0.20900
H1089       H  0.76051220  0.29552195  0.56974528     0.10600
C1090       C  0.84335666  0.23949345  0.59219658    -0.15300
C1091       C  0.85515411  0.21806295  0.60068134     0.03600
C1092       C  0.84901560  0.19482191  0.59022913    -0.10600
C1093       C  0.83013493  0.19392518  0.57221588    -0.00600
C1094       C  0.81812842  0.21535751  0.56416130    -0.05800
H1095       H  0.84838322  0.25716482  0.60008674     0.06600
H1096       H  0.82477151  0.17646863  0.56409239     0.10000
Br1097     Br  0.77505040  0.25430909  0.60190919    -0.05500
Br1098     Br  0.82593324  0.30638337  0.50312903    -0.02500
Br1099     Br  0.87827971  0.22220118  0.62749391     0.00400
Br1100     Br  0.79232141  0.21237583  0.53983052    -0.04000
C1101       C  0.78747022  0.93778663  0.52883674    -0.11400
C1102       C  0.78363509  0.94859290  0.55225223     0.04100
C1103       C  0.79801522  0.96876760  0.55964359    -0.11900
C1104       C  0.81597860  0.97877858  0.54375874     0.18900
C1105       C  0.82035309  0.96752815  0.52067387    -0.09000
C1106       C  0.80619454  0.94712650  0.51342175    -0.01900
H1107       H  0.79453527  0.97727517  0.57745915     0.05500
C1108       C  0.82937416  0.00140993  0.55124433     0.20900
H1109       H  0.80865361  0.93957297  0.49501777     0.10600
C1110       C  0.85434831  0.99977810  0.55830033    -0.15300
C1111       C  0.86749302  0.02060182  0.56619503     0.03600
C1112       C  0.85544111  0.04393852  0.56731954    -0.10600
C1113       C  0.83042189  0.04540268  0.55958903    -0.00600
C1114       C  0.81748175  0.02448916  0.55159610    -0.05800
H1115       H  0.86361242  0.98207081  0.55788740     0.06600
H1116       H  0.82063944  0.06282187  0.56004274     0.10000
Br1117     Br  0.84373302  0.98091327  0.49754225    -0.05500
Br1118     Br  0.75758238  0.93758296  0.57381805    -0.02500
Br1119     Br  0.90158321  0.01484223  0.57539417     0.00400
Br1120     Br  0.78364277  0.02836455  0.54093639    -0.04000
C1121       C  0.81337422  0.08495549  0.66364876    -0.11400
C1122       C  0.81172909  0.06153558  0.67486860     0.04100
C1123       C  0.78871601  0.05298503  0.68342549    -0.11900
C1124       C  0.76711768  0.06732042  0.68105970     0.18900
C1125       C  0.76861236  0.09060575  0.66995964    -0.09000
C1126       C  0.79153002  0.09917188  0.66123663    -0.01900
H1127       H  0.78764316  0.03503329  0.69207333     0.05500
C1128       C  0.74372048  0.05821664  0.69204312     0.20900
H1129       H  0.79225732  0.11710233  0.65249558     0.10600
C1130       C  0.73783625  0.06535116  0.71624635    -0.15300
C1131       C  0.71863760  0.05376856  0.72914246     0.03600
C1132       C  0.70504104  0.03469258  0.71782308    -0.10600
C1133       C  0.70964227  0.02885500  0.69295552    -0.00600
C1134       C  0.72883724  0.04057782  0.67998015    -0.05800
H1135       H  0.74908018  0.07904132  0.72557190     0.06600
H1136       H  0.69941667  0.01407658  0.68416028     0.10000
Br1137     Br  0.73975304  0.11109097  0.66621824    -0.05500
Br1138     Br  0.83967829  0.03966984  0.67776645    -0.02500
Br1139     Br  0.71294938  0.06312090  0.76290482     0.00400
Br1140     Br  0.73499461  0.03109079  0.64636307    -0.04000
C1141       C  0.83673543  0.81043852  0.91850781    -0.11400
C1142       C  0.84625285  0.78754761  0.91004502     0.04100
C1143       C  0.83838266  0.76565743  0.92109485    -0.11900
C1144       C  0.82115900  0.76599850  0.94046705     0.18900
C1145       C  0.81119070  0.78862390  0.94852517    -0.09000
C1146       C  0.81908695  0.81059023  0.93764488    -0.01900
H1147       H  0.84616976  0.74826935  0.91493147     0.05500
C1148       C  0.81419827  0.74272057  0.95264316     0.20900
H1149       H  0.81153217  0.82789036  0.94431909     0.10600
C1150       C  0.82282325  0.73808698  0.97665895    -0.15300
C1151       C  0.81337063  0.71839960  0.99033154     0.03600
C1152       C  0.79539465  0.70273955  0.97978248    -0.10600
C1153       C  0.78833546  0.70621994  0.95504360    -0.00600
C1154       C  0.79751757  0.72616128  0.94147532    -0.05800
H1155       H  0.83580417  0.75068437  0.98528390     0.06600
H1156       H  0.77400484  0.69472294  0.94700114     0.10000
Br1157     Br  0.78663188  0.79032691  0.97424977    -0.05500
Br1158     Br  0.87157529  0.78462152  0.88504750    -0.02500
Br1159     Br  0.82352615  0.71506644  0.02417315     0.00400
Br1160     Br  0.78458093  0.73177342  0.90889915    -0.04000
C1161       C  0.54974032  0.94104934  0.14607235    -0.11400
C1162       C  0.54993474  0.94754104  0.17135864     0.04100
C1163       C  0.52848477  0.95725234  0.18233840    -0.11900
C1164       C  0.50662570  0.96049076  0.16858947     0.18900
C1165       C  0.50636724  0.95417421  0.14337742    -0.09000
C1166       C  0.52778213  0.94435262  0.13233731    -0.01900
H1167       H  0.52866417  0.96180970  0.20187201     0.05500
C1168       C  0.48420587  0.96997155  0.18120503     0.20900
H1169       H  0.52724838  0.93912434  0.11298689     0.10600
C1170       C  0.48024775  0.99544977  0.18241882    -0.15300
C1171       C  0.46115056  0.00515915  0.19708940     0.03600
C1172       C  0.44552771  0.98924829  0.21055973    -0.10600
C1173       C  0.44865486  0.96371481  0.20823058    -0.00600
C1174       C  0.46797264  0.95401772  0.19382543    -0.05800
H1175       H  0.49271641  0.00781889  0.17281057     0.06600
H1176       H  0.43716850  0.95136432  0.21901163     0.10000
Br1177     Br  0.47700667  0.95827130  0.12366554    -0.05500
Br1178     Br  0.57809088  0.94133973  0.19234103    -0.02500
Br1179     Br  0.45805701  0.04027592  0.19956263     0.00400
Br1180     Br  0.47276120  0.91902040  0.19344159    -0.04000
C1181       C  0.69809414  0.92247918  0.16317877    -0.11400
C1182       C  0.72142202  0.91049064  0.16026741     0.04100
C1183       C  0.74248059  0.91960570  0.17239010    -0.11900
C1184       C  0.74100433  0.94052350  0.18741439     0.18900
C1185       C  0.71793124  0.95238357  0.19058553    -0.09000
C1186       C  0.69677866  0.94342659  0.17846785    -0.01900
H1187       H  0.76024745  0.91045563  0.16988040     0.05500
C1188       C  0.76375710  0.94979546  0.19959820     0.20900
H1189       H  0.67919079  0.95282532  0.18118778     0.10600
C1190       C  0.77630106  0.97005794  0.18947597    -0.15300
C1191       C  0.79657957  0.98063789  0.20181842     0.03600
C1192       C  0.80481516  0.97064101  0.22440335    -0.10600
C1193       C  0.79284058  0.94971406  0.23392516    -0.00600
C1194       C  0.77242458  0.93932665  0.22175564    -0.05800
H1195       H  0.76964942  0.97825507  0.17246935     0.06600
H1196       H  0.79848855  0.94234200  0.25166405     0.10000
Br1197     Br  0.71445144  0.98058710  0.21171009    -0.05500
Br1198     Br  0.72668320  0.88245500  0.13910782    -0.02500
Br1199     Br  0.81080935  0.01009640  0.18848133     0.00400
Br1200     Br  0.75561828  0.91220180  0.23708454    -0.04000
C1201       C  0.65552991  0.96926462  0.05876162    -0.11400
C1202       C  0.64659654  0.99329444  0.06438575     0.04100
C1203       C  0.65765744  0.01403423  0.05363531    -0.11900
C1204       C  0.67733815  0.01173385  0.03687484     0.18900
C1205       C  0.68583365  0.98794611  0.03053401    -0.09000
C1206       C  0.67489765  0.96705158  0.04133219    -0.01900
H1207       H  0.65086346  0.03224032  0.05848464     0.05500
C1208       C  0.68948687  0.03440243  0.02723759     0.20900
H1209       H  0.68224377  0.94900911  0.03670098     0.10600
C1210       C  0.70526571  0.04789126  0.04286237    -0.15300
C1211       C  0.71869232  0.06811598  0.03391696     0.03600
C1212       C  0.71655609  0.07522157  0.00895813    -0.10600
C1213       C  0.69963946  0.06263151  0.99368242    -0.00600
C1214       C  0.68587831  0.04259167  0.00276925    -0.05800
H1215       H  0.70791200  0.04206215  0.06181680     0.06600
H1216       H  0.69810677  0.06756699  0.97435236     0.10000
Br1217     Br  0.71324583  0.98321992  0.00826375    -0.05500
Br1218     Br  0.61888848  0.99963350  0.08597881    -0.02500
Br1219     Br  0.74176611  0.08410376  0.05571601     0.00400
Br1220     Br  0.66275741  0.02652654  0.98112439    -0.04000
C1221       C  0.59364130  0.84400469  0.18537872    -0.11400
C1222       C  0.60618658  0.84970300  0.20778833     0.04100
C1223       C  0.59809017  0.83955377  0.23015392    -0.11900
C1224       C  0.57746785  0.82396418  0.23091438     0.18900
C1225       C  0.56434956  0.81895050  0.20891163    -0.09000
C1226       C  0.57244923  0.82893062  0.18640489    -0.01900
H1227       H  0.60797700  0.84382334  0.24708983     0.05500
C1228       C  0.57010241  0.81257922  0.25466274     0.20900
H1229       H  0.56230955  0.82464294  0.16963740     0.10600
C1230       C  0.55559442  0.82593010  0.27163875    -0.15300
C1231       C  0.54489994  0.81420735  0.29218278     0.03600
C1232       C  0.54881449  0.78880101  0.29588849    -0.10600
C1233       C  0.56544340  0.77623112  0.28021052    -0.00600
C1234       C  0.57595512  0.78785914  0.25969843    -0.05800
H1235       H  0.55138798  0.84511569  0.26810569     0.06600
H1236       H  0.56865885  0.75669928  0.28281287     0.10000
Br1237     Br  0.53516632  0.79865072  0.20890897    -0.05500
Br1238     Br  0.63356468  0.87239286  0.20979927    -0.02500
Br1239     Br  0.52302945  0.83296308  0.31296228     0.00400
Br1240     Br  0.59660422  0.76876606  0.23793320    -0.04000
C1241       C  0.67075368  0.81749328  0.07562610    -0.11400
C1242       C  0.66101106  0.79518602  0.08513303     0.04100
C1243       C  0.67036854  0.77260142  0.07692868    -0.11900
C1244       C  0.68913474  0.77159724  0.05909125     0.18900
C1245       C  0.69818400  0.79365179  0.04875300    -0.09000
C1246       C  0.68893303  0.81639472  0.05699947    -0.01900
H1247       H  0.66306478  0.75566798  0.08462929     0.05500
C1248       C  0.69986504  0.74744727  0.05234443     0.20900
H1249       H  0.69638089  0.83323897  0.04926300     0.10600
C1250       C  0.69169232  0.73532161  0.03093039    -0.15300
C1251       C  0.70369642  0.71390522  0.02271763     0.03600
C1252       C  0.72434542  0.70466088  0.03579445    -0.10600
C1253       C  0.73123792  0.71575926  0.05819572    -0.00600
C1254       C  0.71893679  0.73686308  0.06667221    -0.05800
H1255       H  0.67663774  0.74304666  0.02011882     0.06600
H1256       H  0.74729084  0.70899473  0.06821283     0.10000
Br1257     Br  0.72365399  0.79347506  0.02388907    -0.05500
Br1258     Br  0.63393621  0.79400763  0.10836186    -0.02500
Br1259     Br  0.69274173  0.69890388  0.99250551     0.00400
Br1260     Br  0.72992010  0.75167792  0.09697798    -0.04000
C1261       C  0.21484569  0.53326978  0.22654462    -0.11400
C1262       C  0.21932888  0.52702967  0.20163695     0.04100
C1263       C  0.23947126  0.53761082  0.18902773    -0.11900
C1264       C  0.25536520  0.55425127  0.20107094     0.18900
C1265       C  0.25021115  0.56125371  0.22558958    -0.09000
C1266       C  0.23007547  0.55082493  0.23809082    -0.01900
H1267       H  0.24333268  0.53212999  0.17014123     0.05500
C1268       C  0.27795582  0.56336372  0.18844644     0.20900
H1269       H  0.22714257  0.55533885  0.25739373     0.10600
C1270       C  0.27728411  0.58619127  0.17654339    -0.15300
C1271       C  0.29869392  0.59611505  0.16569784     0.03600
C1272       C  0.32165207  0.58319451  0.16703665    -0.10600
C1273       C  0.32201685  0.56004580  0.17872746    -0.00600
C1274       C  0.30045760  0.55012321  0.18930449    -0.05800
H1275       H  0.25992825  0.59634863  0.17566946     0.06600
H1276       H  0.33917538  0.54961131  0.17978660     0.10000
Br1277     Br  0.27138215  0.58353297  0.24331361    -0.05500
Br1278     Br  0.19989328  0.50249645  0.18500294    -0.02500
Br1279     Br  0.29440707  0.62659164  0.14816074     0.00400
Br1280     Br  0.30256379  0.51853776  0.20501983    -0.04000
C1281       C  0.29928230  0.43652774  0.01843115    -0.11400
C1282       C  0.31351459  0.44997367  0.00123289     0.04100
C1283       C  0.32799605  0.46986038  0.00918033    -0.11900
C1284       C  0.32836407  0.47666007  0.03417783     0.18900
C1285       C  0.31508772  0.46253229  0.05154846    -0.09000
C1286       C  0.30074308  0.44253684  0.04361941    -0.01900
H1287       H  0.33815210  0.48065078  0.99573115     0.05500
C1288       C  0.34083698  0.49967258  0.04171365     0.20900
H1289       H  0.28939358  0.43274192  0.05689281     0.10600
C1290       C  0.32730518  0.52176910  0.04132441    -0.15300
C1291       C  0.33729374  0.54340876  0.05129524     0.03600
C1292       C  0.36124607  0.54298198  0.06207405    -0.10600
C1293       C  0.37512372  0.52102964  0.06135643    -0.00600
C1294       C  0.36519221  0.49955029  0.05110491    -0.05800
H1295       H  0.30848851  0.52193106  0.03409024     0.06600
H1296       H  0.39363738  0.52044643  0.06930053     0.10000
Br1297     Br  0.31444097  0.47122265  0.08596116    -0.05500
Br1298     Br  0.31223859  0.44278045  0.96650671    -0.02500
Br1299     Br  0.31634726  0.57210102  0.05178383     0.00400
Br1300     Br  0.38512366  0.47025313  0.05101989    -0.04000
C1301       C  0.34446291  0.68892773  0.08368076    -0.11400
C1302       C  0.32748218  0.68916856  0.06373114     0.04100
C1303       C  0.31876999  0.71164907  0.05443368    -0.11900
C1304       C  0.32662106  0.73408063  0.06467655     0.18900
C1305       C  0.34318785  0.73390308  0.08475923    -0.09000
C1306       C  0.35191424  0.71149134  0.09411968    -0.01900
H1307       H  0.30555555  0.71165490  0.03931504     0.05500
C1308       C  0.31617034  0.75732982  0.05493265     0.20900
H1309       H  0.36510110  0.71175975  0.10926135     0.10600
C1310       C  0.29801093  0.76979118  0.06877781    -0.15300
C1311       C  0.28505102  0.78972158  0.05866441     0.03600
C1312       C  0.29018948  0.79740762  0.03435453    -0.10600
C1313       C  0.30942066  0.78594568  0.02107244    -0.00600
C1314       C  0.32249931  0.76607601  0.03124195    -0.05800
H1315       H  0.29307581  0.76323365  0.08705481     0.06600
H1316       H  0.31325699  0.79152809  0.00221357     0.10000
Br1317     Br  0.35503788  0.76388006  0.09933312    -0.05500
Br1318     Br  0.31432359  0.65957603  0.04935596    -0.02500
Br1319     Br  0.25890264  0.80452933  0.07774561     0.00400
Br1320     Br  0.34817169  0.75083013  0.01187101    -0.04000
C1321       C  0.43095317  0.66656042  0.18903174    -0.11400
C1322       C  0.41808487  0.66599458  0.21198875     0.04100
C1323       C  0.42856880  0.67695084  0.23300207    -0.11900
C1324       C  0.45150845  0.68905687  0.23185176     0.18900
C1325       C  0.46416616  0.69008093  0.20902684    -0.09000
C1326       C  0.45402933  0.67870987  0.18803768    -0.01900
H1327       H  0.41874491  0.67594998  0.25049149     0.05500
C1328       C  0.46203065  0.70038300  0.25460614     0.20900
H1329       H  0.46414796  0.67971018  0.17073171     0.10600
C1330       C  0.48457652  0.69141529  0.26419219    -0.15300
C1331       C  0.49632970  0.70327793  0.28400209     0.03600
C1332       C  0.48535909  0.72424392  0.29484454    -0.10600
C1333       C  0.46210495  0.73230662  0.28629726    -0.00600
C1334       C  0.45037263  0.72053971  0.26639065    -0.05800
H1335       H  0.49354075  0.67570403  0.25558967     0.06600
H1336       H  0.45380655  0.74877318  0.29410214     0.10000
Br1337     Br  0.49480819  0.70779755  0.20529512    -0.05500
Br1338     Br  0.38662236  0.64989513  0.21679478    -0.02500
Br1339     Br  0.52821565  0.69137103  0.29458170     0.00400
Br1340     Br  0.41963414  0.73416132  0.25459139    -0.04000
C1341       C  0.57215511  0.85772140  0.03693176    -0.11400
C1342       C  0.57364593  0.86777353  0.01278557     0.04100
C1343       C  0.56378621  0.85488607  0.99268018    -0.11900
C1344       C  0.55215035  0.83214498  0.99596594     0.18900
C1345       C  0.54979329  0.82240683  0.02000162    -0.09000
C1346       C  0.55960446  0.83527145  0.04023562    -0.01900
H1347       H  0.56546733  0.86254189  0.97422078     0.05500
C1348       C  0.54388352  0.81823360  0.97396401     0.20900
H1349       H  0.55844840  0.82706072  0.05848200     0.10600
C1350       C  0.56181470  0.80702197  0.95875202    -0.15300
C1351       C  0.55464953  0.79156717  0.93927904     0.03600
C1352       C  0.52921829  0.78738813  0.93475780    -0.10600
C1353       C  0.51134715  0.79984540  0.94901636    -0.00600
C1354       C  0.51849677  0.81528626  0.96843523    -0.05800
H1355       H  0.58139928  0.80943469  0.96273701     0.06600
H1356       H  0.49174861  0.79657530  0.94577842     0.10000
Br1357     Br  0.53487854  0.79083881  0.02580489    -0.05500
Br1358     Br  0.58848474  0.89915307  0.00572124    -0.02500
Br1359     Br  0.58011353  0.77484240  0.92088507     0.00400
Br1360     Br  0.49299465  0.83127479  0.98742343    -0.04000
C1361       C  0.44899339  0.64547206  0.04085996    -0.11400
C1362       C  0.46057952  0.66876942  0.04029644     0.04100
C1363       C  0.46954769  0.67811412  0.01784390    -0.11900
C1364       C  0.46743006  0.66454510  0.99583267     0.18900
C1365       C  0.45711326  0.64082778  0.99657298    -0.09000
C1366       C  0.44777841  0.63159805  0.01887286    -0.01900
H1367       H  0.47768444  0.69634989  0.01741599     0.05500
C1368       C  0.47576798  0.67583846  0.97236164     0.20900
H1369       H  0.43911592  0.61359591  0.01895618     0.10600
C1370       C  0.50118570  0.67584487  0.96664684    -0.15300
C1371       C  0.51027631  0.68992909  0.94698500     0.03600
C1372       C  0.49386459  0.70433854  0.93271058    -0.10600
C1373       C  0.46820658  0.70297101  0.93734975    -0.00600
C1374       C  0.45908175  0.68881229  0.95702665    -0.05800
H1375       H  0.51411707  0.66583313  0.97825963     0.06600
H1376       H  0.45545819  0.71434571  0.92685099     0.10000
Br1377     Br  0.45523874  0.62061291  0.96753943    -0.05500
Br1378     Br  0.46286062  0.68952954  0.06895021    -0.02500
Br1379     Br  0.54552180  0.69068085  0.94152409     0.00400
Br1380     Br  0.42401039  0.68942895  0.96364952    -0.04000
C1381       C  0.57240829  0.50899346  0.21397908    -0.11400
C1382       C  0.56720103  0.53442074  0.21266961     0.04100
C1383       C  0.54702559  0.54294054  0.19850638    -0.11900
C1384       C  0.53159039  0.52642767  0.18568433     0.18900
C1385       C  0.53731487  0.50114637  0.18623140    -0.09000
C1386       C  0.55751684  0.49263471  0.20027992    -0.01900
H1387       H  0.54277481  0.56243320  0.19826900     0.05500
C1388       C  0.50910377  0.53585833  0.17270076     0.20900
H1389       H  0.56082308  0.47300928  0.20160154     0.10600
C1390       C  0.51100278  0.54382497  0.14812757    -0.15300
C1391       C  0.49055784  0.55442938  0.13597192     0.03600
C1392       C  0.46774070  0.55770404  0.14859343    -0.10600
C1393       C  0.46547787  0.54835334  0.17270616    -0.00600
C1394       C  0.48587048  0.53748817  0.18473957    -0.05800
H1395       H  0.52856096  0.54195101  0.13840708     0.06600
H1396       H  0.44807162  0.55044412  0.18265196     0.10000
Br1397     Br  0.51708644  0.47750974  0.16925811    -0.05500
Br1398     Br  0.58554202  0.55790168  0.23188253    -0.02500
Br1399     Br  0.49444971  0.56308631  0.10179188     0.00400
Br1400     Br  0.48138519  0.52571755  0.21786104    -0.04000
C1401       C  0.30300639  0.56310807  0.48996094    -0.11400
C1402       C  0.31437927  0.54709382  0.50710352     0.04100
C1403       C  0.32863654  0.52718419  0.49873207    -0.11900
C1404       C  0.33173893  0.52290288  0.47335030     0.18900
C1405       C  0.32214950  0.54008966  0.45628546    -0.09000
C1406       C  0.30793759  0.56006595  0.46467059    -0.01900
H1407       H  0.33599411  0.51413216  0.51202034     0.05500
C1408       C  0.34172066  0.49887372  0.46496018     0.20900
H1409       H  0.29912909  0.57211444  0.45130032     0.10600
C1410       C  0.32539474  0.48221696  0.45365236    -0.15300
C1411       C  0.33379417  0.45956444  0.44458401     0.03600
C1412       C  0.35914475  0.45290272  0.44722430    -0.10600
C1413       C  0.37530178  0.46943215  0.45930667    -0.00600
C1414       C  0.36680327  0.49222755  0.46809582    -0.05800
H1415       H  0.30600753  0.48719249  0.45131318     0.06600
H1416       H  0.39480420  0.46486824  0.46147368     0.10000
Br1417     Br  0.32667953  0.53602432  0.42130535    -0.05500
Br1418     Br  0.30912457  0.55060393  0.54204127    -0.02500
Br1419     Br  0.30982319  0.44005058  0.42693126     0.00400
Br1420     Br  0.39034203  0.51425014  0.48292528    -0.04000
C1421       C  0.46450594  0.43389093  0.35830671    -0.11400
C1422       C  0.46901953  0.43129805  0.33257837     0.04100
C1423       C  0.49163387  0.43909892  0.32248824    -0.11900
C1424       C  0.51060765  0.44871405  0.33741830     0.18900
C1425       C  0.50611887  0.45174950  0.36291195    -0.09000
C1426       C  0.48326852  0.44444790  0.37308826    -0.01900
H1427       H  0.49476151  0.43694291  0.30281624     0.05500
C1428       C  0.53464694  0.45555166  0.32561843     0.20900
H1429       H  0.48044469  0.44646300  0.39282213     0.10600
C1430       C  0.54188860  0.48035188  0.32514943    -0.15300
C1431       C  0.56185774  0.48806012  0.31045757     0.03600
C1432       C  0.57501343  0.47090956  0.29585939    -0.10600
C1433       C  0.56884492  0.44588633  0.29750192    -0.00600
C1434       C  0.54890369  0.43811067  0.31229454    -0.05800
H1435       H  0.53105229  0.49400556  0.33508509     0.06600
H1436       H  0.57850466  0.43257223  0.28601905     0.10000
Br1437     Br  0.53112207  0.46427064  0.38485560    -0.05500
Br1438     Br  0.44665299  0.41507190  0.31008754    -0.02500
Br1439     Br  0.56900818  0.52261377  0.30875948     0.00400
Br1440     Br  0.54108983  0.40362468  0.31281895    -0.04000
C1441       C  0.34938209  0.30362621  0.42972528    -0.11400
C1442       C  0.32954967  0.30409308  0.44706620     0.04100
C1443       C  0.32124088  0.28210027  0.45773743    -0.11900
C1444       C  0.33211850  0.25943785  0.45159993     0.18900
C1445       C  0.35153340  0.25872101  0.43432491    -0.09000
C1446       C  0.35997023  0.28056736  0.42359380    -0.01900
H1447       H  0.30606659  0.28263982  0.47094774     0.05500
C1448       C  0.32209288  0.23676606  0.46282745     0.20900
H1449       H  0.37518591  0.27937012  0.41049442     0.10600
C1450       C  0.30536566  0.22234889  0.44918749    -0.15300
C1451       C  0.29191761  0.20350551  0.46062237     0.03600
C1452       C  0.29510054  0.19904547  0.48605626    -0.10600
C1453       C  0.31320991  0.21222843  0.49922368    -0.00600
C1454       C  0.32682104  0.23090637  0.48773254    -0.05800
H1455       H  0.30175314  0.22667431  0.42996735     0.06600
H1456       H  0.31569113  0.20896037  0.51883132     0.10000
Br1457     Br  0.36748636  0.22834565  0.42544577    -0.05500
Br1458     Br  0.31283679  0.33359594  0.45762583    -0.02500
Br1459     Br  0.26751438  0.18614211  0.44152095     0.00400
Br1460     Br  0.35078388  0.24873066  0.50695335    -0.04000
C1461       C  0.31637247  0.41125667  0.34508199    -0.11400
C1462       C  0.29429904  0.39737702  0.34259124     0.04100
C1463       C  0.27296030  0.40818708  0.33229309    -0.11900
C1464       C  0.27333638  0.43255919  0.32370794     0.18900
C1465       C  0.29579862  0.44587473  0.32479494    -0.09000
C1466       C  0.31696155  0.43527195  0.33551976    -0.01900
H1467       H  0.25604268  0.39747626  0.33078601     0.05500
C1468       C  0.25046589  0.44373014  0.31306713     0.20900
H1469       H  0.33383450  0.44607461  0.33684049     0.10600
C1470       C  0.23910292  0.46374979  0.32514601    -0.15300
C1471       C  0.21967167  0.47685987  0.31387345     0.03600
C1472       C  0.21091539  0.46964918  0.29042575    -0.10600
C1473       C  0.22129562  0.44876087  0.27905341    -0.00600
C1474       C  0.24097520  0.43589851  0.29009253    -0.05800
H1475       H  0.24626833  0.46998626  0.34279296     0.06600
H1476       H  0.21532383  0.44357273  0.26063824     0.10000
Br1477     Br  0.29873241  0.47833009  0.31112465    -0.05500
Br1478     Br  0.29279852  0.36312226  0.35112785    -0.02500
Br1479     Br  0.20746605  0.50605756  0.32979523     0.00400
Br1480     Br  0.25619924  0.40964784  0.27171547    -0.04000
C1481       C  0.42688594  0.33730272  0.31629189    -0.11400
C1482       C  0.41685005  0.34363588  0.29281754     0.04100
C1483       C  0.42834540  0.33528261  0.27111854    -0.11900
C1484       C  0.44950674  0.32027513  0.27205054     0.18900
C1485       C  0.45897205  0.31312252  0.29524515    -0.09000
C1486       C  0.44774816  0.32164848  0.31705173    -0.01900
H1487       H  0.42060877  0.34038765  0.25333219     0.05500
C1488       C  0.46100261  0.31149477  0.24869282     0.20900
H1489       H  0.45574389  0.31638351  0.33466441     0.10600
C1490       C  0.48398273  0.32113136  0.24108072    -0.15300
C1491       C  0.49663733  0.31105998  0.22074225     0.03600
C1492       C  0.48611285  0.29133346  0.20741921    -0.10600
C1493       C  0.46247888  0.28271092  0.21420634    -0.00600
C1494       C  0.44996965  0.29255433  0.23470744    -0.05800
H1495       H  0.49257793  0.33578723  0.25164401     0.06600
H1496       H  0.45452366  0.26708429  0.20459701     0.10000
Br1497     Br  0.48692956  0.29128759  0.29795018    -0.05500
Br1498     Br  0.38690764  0.36265260  0.28856677    -0.02500
Br1499     Br  0.52901911  0.32353850  0.21283500     0.00400
Br1500     Br  0.41907518  0.27786660  0.24449438    -0.04000
C1501       C  0.48398468  0.28878998  0.57712959    -0.11400
C1502       C  0.49775572  0.30924297  0.56896411     0.04100
C1503       C  0.48873164  0.32364878  0.54942866    -0.11900
C1504       C  0.46604599  0.31788398  0.53796149     0.18900
C1505       C  0.45147691  0.29854397  0.54738039    -0.09000
C1506       C  0.46049306  0.28419873  0.56685063    -0.01900
H1507       H  0.50003913  0.33851463  0.54228190     0.05500
C1508       C  0.45938435  0.32991341  0.51437209     0.20900
H1509       H  0.44999608  0.26823053  0.57272244     0.10600
C1510       C  0.46996336  0.32097301  0.49239857    -0.15300
C1511       C  0.46290888  0.33049498  0.46936843     0.03600
C1512       C  0.44526296  0.34975375  0.46811377    -0.10600
C1513       C  0.43522346  0.35906420  0.49034438    -0.00600
C1514       C  0.44189886  0.34911147  0.51327826    -0.05800
H1515       H  0.48341242  0.30610551  0.49316410     0.06600
H1516       H  0.42135466  0.37356418  0.48986286     0.10000
Br1517     Br  0.42040917  0.28941048  0.53254267    -0.05500
Br1518     Br  0.53001073  0.31649933  0.58223355    -0.02500
Br1519     Br  0.47839250  0.31667537  0.44053277     0.00400
Br1520     Br  0.42604540  0.36154370  0.54255226    -0.04000
C1521       C  0.44455938  0.02289042  0.29472021    -0.11400
C1522       C  0.46153567  0.00687430  0.30639958     0.04100
C1523       C  0.48072209  0.01644123  0.32086418    -0.11900
C1524       C  0.48338689  0.04190650  0.32395268     0.18900
C1525       C  0.46529296  0.05785848  0.31389902    -0.09000
C1526       C  0.44597009  0.04824996  0.29943337    -0.01900
H1527       H  0.49449462  0.00401580  0.32855232     0.05500
C1528       C  0.50669725  0.05121922  0.33505948     0.20900
H1529       H  0.43313684  0.06073790  0.29038358     0.10600
C1530       C  0.52400639  0.06316954  0.31982777    -0.15300
C1531       C  0.54711199  0.07073351  0.32902586     0.03600
C1532       C  0.55328099  0.06624502  0.35405764    -0.10600
C1533       C  0.53592092  0.05399102  0.36913644    -0.00600
C1534       C  0.51289403  0.04643766  0.35984676    -0.05800
H1535       H  0.51950065  0.06658391  0.30060957     0.06600
H1536       H  0.54011837  0.05057176  0.38842481     0.10000
Br1537     Br  0.46694849  0.09285331  0.31839722    -0.05500
Br1538     Br  0.46049092  0.97190386  0.30142393    -0.02500
Br1539     Br  0.56838557  0.08842371  0.30669935     0.00400
Br1540     Br  0.49015367  0.03045947  0.38194042    -0.04000
C1541       C  0.80988202  0.02235725  0.29854180    -0.11400
C1542       C  0.79272976  0.00947008  0.31346597     0.04100
C1543       C  0.77365336  0.02219055  0.32568798    -0.11900
C1544       C  0.77122868  0.04781955  0.32338407     0.18900
C1545       C  0.78990139  0.06095195  0.31062916    -0.09000
C1546       C  0.80897348  0.04817918  0.29826731    -0.01900
H1547       H  0.75994417  0.01191693  0.33607548     0.05500
C1548       C  0.74836532  0.06009597  0.33306633     0.20900
H1549       H  0.82190925  0.05832736  0.28683639     0.10600
C1550       C  0.75012311  0.07710565  0.35246648    -0.15300
C1551       C  0.72888664  0.08867260  0.36221120     0.03600
C1552       C  0.70484734  0.08296333  0.35272516    -0.10600
C1553       C  0.70334970  0.06608312  0.33300863    -0.00600
C1554       C  0.72466672  0.05477432  0.32321999    -0.05800
H1555       H  0.76823447  0.08141397  0.36013525     0.06600
H1556       H  0.68541264  0.06134794  0.32520995     0.10000
Br1557     Br  0.78887583  0.09609319  0.30744162    -0.05500
Br1558     Br  0.79364064  0.97424436  0.31634078    -0.02500
Br1559     Br  0.73491610  0.11242076  0.38792822     0.00400
Br1560     Br  0.72038320  0.03256905  0.29590063    -0.04000
C1561       C  0.66632893  0.19544224  0.42514589    -0.11400
C1562       C  0.66072769  0.21913109  0.41537611     0.04100
C1563       C  0.67050775  0.24020077  0.42656144    -0.11900
C1564       C  0.68578943  0.23846554  0.44737401     0.18900
C1565       C  0.69142213  0.21514946  0.45721540    -0.09000
C1566       C  0.68182709  0.19394181  0.44607442    -0.01900
H1567       H  0.66619995  0.25815279  0.41893738     0.05500
C1568       C  0.69617127  0.26112949  0.45831595     0.20900
H1569       H  0.68626090  0.17622194  0.45412907     0.10600
C1570       C  0.68790324  0.26888715  0.48166851    -0.15300
C1571       C  0.69977818  0.28824169  0.49394459     0.03600
C1572       C  0.71992236  0.30033611  0.48261251    -0.10600
C1573       C  0.72694187  0.29377492  0.45852760    -0.00600
C1574       C  0.71529347  0.27422392  0.44636576    -0.05800
H1575       H  0.67297462  0.25909290  0.49082515     0.06600
H1576       H  0.74272741  0.30268864  0.44989680     0.10000
Br1577     Br  0.71248507  0.21137593  0.48564035    -0.05500
Br1578     Br  0.64032062  0.22490392  0.38670578    -0.02500
Br1579     Br  0.68906448  0.29650281  0.52676743     0.00400
Br1580     Br  0.72788296  0.26445413  0.41461961    -0.04000
C1581       C  0.54415728  0.22184231  0.20287924    -0.11400
C1582       C  0.53217098  0.20090501  0.21257527     0.04100
C1583       C  0.54318113  0.18742843  0.23187970    -0.11900
C1584       C  0.56612158  0.19462994  0.24205253     0.18900
C1585       C  0.57875765  0.21473523  0.23140324    -0.09000
C1586       C  0.56773585  0.22818465  0.21209192    -0.01900
H1587       H  0.53322729  0.17204228  0.23982380     0.05500
C1588       C  0.57543993  0.18263222  0.26512758     0.20900
H1589       H  0.57685865  0.24462154  0.20537097     0.10600
C1590       C  0.59656438  0.16742674  0.26443125    -0.15300
C1591       C  0.60635076  0.15687083  0.28611890     0.03600
C1592       C  0.59486801  0.16139589  0.30937607    -0.10600
C1593       C  0.57369998  0.17672392  0.30983904    -0.00600
C1594       C  0.56401225  0.18718538  0.28815007    -0.05800
H1595       H  0.60570700  0.16399414  0.24688391     0.06600
H1596       H  0.56437426  0.18049827  0.32720932     0.10000
Br1597     Br  0.60993704  0.22603634  0.24435537    -0.05500
Br1598     Br  0.49955600  0.19165716  0.20161298    -0.02500
Br1599     Br  0.63615742  0.13763387  0.28242568     0.00400
Br1600     Br  0.53548368  0.20830185  0.29101824    -0.04000
C1601       C  0.56800580  0.15482180  0.45999265    -0.11400
C1602       C  0.56860020  0.18045296  0.46515565     0.04100
C1603       C  0.56103278  0.18918193  0.48842694    -0.11900
C1604       C  0.55305481  0.17300734  0.50701380     0.18900
C1605       C  0.55214765  0.14766568  0.50189325    -0.09000
C1606       C  0.55938749  0.13885196  0.47865575    -0.01900
H1607       H  0.56152388  0.20878527  0.49214194     0.05500
C1608       C  0.54432960  0.18315967  0.53102291     0.20900
H1609       H  0.55885399  0.11916848  0.47546967     0.10600
C1610       C  0.51879128  0.18289077  0.53625685    -0.15300
C1611       C  0.50924671  0.19549883  0.55676186     0.03600
C1612       C  0.52535686  0.20850438  0.57271078    -0.10600
C1613       C  0.55110419  0.20730427  0.56845832    -0.00600
C1614       C  0.56064388  0.19486718  0.54772799    -0.05800
H1615       H  0.50607438  0.17391915  0.52359405     0.06600
H1616       H  0.56366770  0.21756201  0.58024829     0.10000
Br1617     Br  0.54249022  0.12419260  0.52653624    -0.05500
Br1618     Br  0.58063997  0.20474083  0.44227289    -0.02500
Br1619     Br  0.47381171  0.19617329  0.56104848     0.00400
Br1620     Br  0.59590779  0.19532223  0.54231472    -0.04000
C1621       C  0.64908462  0.04736463  0.45278486    -0.11400
C1622       C  0.63303494  0.02750048  0.45889400     0.04100
C1623       C  0.64300065  0.00495407  0.46691925    -0.11900
C1624       C  0.66871862  0.00179333  0.46984514     0.18900
C1625       C  0.68444971  0.02220467  0.46613106    -0.09000
C1626       C  0.67467399  0.04454725  0.45758341    -0.01900
H1627       H  0.63063778  0.98961675  0.47032568     0.05500
C1628       C  0.67922603  0.97697437  0.47527114     0.20900
H1629       H  0.68742486  0.05947481  0.45380147     0.10600
C1630       C  0.69537109  0.96614683  0.45792804    -0.15300
C1631       C  0.70934296  0.94521787  0.46391978     0.03600
C1632       C  0.70692118  0.93434066  0.48741398    -0.10600
C1633       C  0.68898769  0.94369660  0.50385501    -0.00600
C1634       C  0.67513934  0.96483714  0.49796518    -0.05800
H1635       H  0.69838172  0.97501273  0.44024678     0.06600
H1636       H  0.68736928  0.93586724  0.52219930     0.10000
Br1637     Br  0.71959976  0.02048375  0.47233541    -0.05500
Br1638     Br  0.59737014  0.02948700  0.45709790    -0.02500
Br1639     Br  0.73400975  0.93414317  0.44077065     0.00400
Br1640     Br  0.65320761  0.97792529  0.52270063    -0.04000
C1641       C  0.14950328  0.45894087  0.55639699    -0.11400
C1642       C  0.17142189  0.45848293  0.54192923     0.04100
C1643       C  0.18233753  0.48061283  0.53429301    -0.11900
C1644       C  0.17177112  0.50340428  0.54062499     0.18900
C1645       C  0.14911709  0.50392184  0.55358806    -0.09000
C1646       C  0.13820077  0.48186279  0.56135766    -0.01900
H1647       H  0.19947251  0.48006452  0.52374439     0.05500
C1648       C  0.18519006  0.52625714  0.53400592     0.20900
H1649       H  0.12127530  0.48277534  0.57220523     0.10600
C1650       C  0.18661940  0.53325912  0.50909245    -0.15300
C1651       C  0.20227039  0.55246088  0.50171560     0.03600
C1652       C  0.21673418  0.56501879  0.51937268    -0.10600
C1653       C  0.21433141  0.55889781  0.54444931    -0.00600
C1654       C  0.19875386  0.53961590  0.55185738    -0.05800
H1655       H  0.17639965  0.52302622  0.49523075     0.06600
H1656       H  0.22594031  0.56794369  0.55806564     0.10000
Br1657     Br  0.13266734  0.53435128  0.56131683    -0.05500
Br1658     Br  0.18703441  0.42842729  0.53135103    -0.02500
Br1659     Br  0.20513808  0.55954378  0.46708876     0.00400
Br1660     Br  0.19870889  0.53050087  0.58614441    -0.04000
C1661       C  0.03062647  0.28920354  0.79937540    -0.11400
C1662       C  0.05580557  0.28608169  0.79275076     0.04100
C1663       C  0.06598307  0.30018780  0.77356569    -0.11900
C1664       C  0.05131202  0.31728199  0.76064933     0.18900
C1665       C  0.02645409  0.32106358  0.76794011    -0.09000
C1666       C  0.01634262  0.30710998  0.78717416    -0.01900
H1667       H  0.08503161  0.29694999  0.76787723     0.05500
C1668       C  0.06134600  0.32882780  0.73796063     0.20900
H1669       H  0.99689536  0.30942670  0.79189310     0.10600
C1670       C  0.05359272  0.31983321  0.71495015    -0.15300
C1671       C  0.06310331  0.32941061  0.69287405     0.03600
C1672       C  0.08086691  0.34872786  0.69353461    -0.10600
C1673       C  0.08835067  0.35780226  0.71684776    -0.00600
C1674       C  0.07890042  0.34791758  0.73885728    -0.05800
H1675       H  0.04011022  0.30505046  0.71419203     0.06600
H1676       H  0.10183224  0.37254215  0.71808224     0.10000
Br1677     Br  0.00530277  0.34431378  0.75147217    -0.05500
Br1678     Br  0.07624463  0.26113427  0.80752014    -0.02500
Br1679     Br  0.05029600  0.31505087  0.66295115     0.00400
Br1680     Br  0.09025953  0.36112115  0.76975978    -0.04000
C1681       C  0.06436121  0.35078495  0.54468525    -0.11400
C1682       C  0.04834769  0.33018785  0.54593860     0.04100
C1683       C  0.04152646  0.31775686  0.52420357    -0.11900
C1684       C  0.05054480  0.32526086  0.50104478     0.18900
C1685       C  0.06592999  0.34612723  0.49968040    -0.09000
C1686       C  0.07256345  0.35872880  0.52130007    -0.01900
H1687       H  0.02939364  0.30189055  0.52539827     0.05500
C1688       C  0.04388494  0.31081859  0.47868398     0.20900
H1689       H  0.08497824  0.37435347  0.51984428     0.10600
C1690       C  0.01962894  0.31237262  0.46919214    -0.15300
C1691       C  0.01190186  0.29691786  0.44988194     0.03600
C1692       C  0.02865128  0.27982518  0.43947734    -0.10600
C1693       C  0.05316014  0.27887760  0.44839974    -0.00600
C1694       C  0.06080367  0.29405698  0.46794238    -0.05800
H1695       H  0.00637231  0.32493683  0.47753117     0.06600
H1696       H  0.06591748  0.26514941  0.44120625     0.10000
Br1697     Br  0.07857935  0.35790452  0.46872345    -0.05500
Br1698     Br  0.03453022  0.31859163  0.57651793    -0.02500
Br1699     Br  0.97767003  0.29796579  0.43994161     0.00400
Br1700     Br  0.09367957  0.28945518  0.48100674    -0.04000
C1701       C  0.19501022  0.42301522  0.66116373    -0.11400
C1702       C  0.21807472  0.41038404  0.66045469     0.04100
C1703       C  0.23924086  0.42087574  0.67126388    -0.11900
C1704       C  0.23808212  0.44377529  0.68320321     0.18900
C1705       C  0.21507856  0.45635928  0.68408203    -0.09000
C1706       C  0.19386273  0.44591846  0.67323550    -0.01900
H1707       H  0.25675793  0.41098202  0.67051116     0.05500
C1708       C  0.26090394  0.45402379  0.69491877     0.20900
H1709       H  0.17645634  0.45600516  0.67386337     0.10600
C1710       C  0.27091699  0.47624325  0.68615809    -0.15300
C1711       C  0.29094723  0.48751436  0.69827710     0.03600
C1712       C  0.30146743  0.47650191  0.71939231    -0.10600
C1713       C  0.29250500  0.45357479  0.72725718    -0.00600
C1714       C  0.27248890  0.44224100  0.71515191    -0.05800
H1715       H  0.26257640  0.48525962  0.67033891     0.06600
H1716       H  0.30012091  0.44517985  0.74377073     0.10000
Br1717     Br  0.21143641  0.48760740  0.70032767    -0.05500
Br1718     Br  0.22182086  0.37813040  0.64630037    -0.02500
Br1719     Br  0.30245164  0.51874054  0.68641468     0.00400
Br1720     Br  0.26036717  0.41175268  0.72836054    -0.04000
C1721       C  0.22119153  0.20341993  0.53887356    -0.11400
C1722       C  0.22497682  0.20975764  0.56386085     0.04100
C1723       C  0.21244079  0.22999011  0.57409515    -0.11900
C1724       C  0.19634987  0.24429914  0.55959060     0.18900
C1725       C  0.19200174  0.23758598  0.53482158    -0.09000
C1726       C  0.20429630  0.21720183  0.52469378    -0.01900
H1727       H  0.21602888  0.23519275  0.59309334     0.05500
C1728       C  0.18551015  0.26706951  0.57002718     0.20900
H1729       H  0.20193027  0.21305373  0.50524275     0.10600
C1730       C  0.19988178  0.28858168  0.57073073    -0.15300
C1731       C  0.18986540  0.31081934  0.57943002     0.03600
C1732       C  0.16482484  0.31174699  0.58749058    -0.10600
C1733       C  0.15080504  0.28982221  0.58730307    -0.00600
C1734       C  0.16093436  0.26769575  0.57874324    -0.05800
H1735       H  0.21898262  0.28807295  0.56432309     0.06600
H1736       H  0.13161441  0.28986421  0.59345846     0.10000
Br1737     Br  0.17119473  0.25704656  0.51359518    -0.05500
Br1738     Br  0.24906268  0.19295532  0.58385480    -0.02500
Br1739     Br  0.21179329  0.33867533  0.58067862     0.00400
Br1740     Br  0.14056403  0.23873647  0.57921384    -0.04000
C1741       C  0.94078204  0.49320194  0.70837097    -0.11400
C1742       C  0.94484414  0.46775984  0.70526606     0.04100
C1743       C  0.96471021  0.45946464  0.69072648    -0.11900
C1744       C  0.98101078  0.47624573  0.67952089     0.18900
C1745       C  0.97617440  0.50164932  0.68150174    -0.09000
C1746       C  0.95616114  0.50994512  0.69586937    -0.01900
H1747       H  0.96837959  0.43988052  0.68939299     0.05500
C1748       C  0.00427905  0.46705489  0.66812729     0.20900
H1749       H  0.95366476  0.52954499  0.69874491     0.10600
C1750       C  0.00753247  0.46838040  0.64244839    -0.15300
C1751       C  0.02933885  0.45956127  0.63127616     0.03600
C1752       C  0.04823007  0.44870496  0.64593731    -0.10600
C1753       C  0.04516897  0.44833752  0.67178137    -0.00600
C1754       C  0.02353051  0.45740075  0.68286622    -0.05800
H1755       H  0.99303974  0.47635574  0.63106753     0.06600
H1756       H  0.05934941  0.44028563  0.68350229     0.10000
Br1757     Br  0.99805915  0.52563416  0.66726177    -0.05500
Br1758     Br  0.92582063  0.44382946  0.72320301    -0.02500
Br1759     Br  0.03239421  0.46399888  0.59616953     0.00400
Br1760     Br  0.02126359  0.45644015  0.71830378    -0.04000
C1761       C  0.21627938  0.06575132  0.49263533    -0.11400
C1762       C  0.21735284  0.05916079  0.46746173     0.04100
C1763       C  0.20346944  0.03918767  0.45875930    -0.11900
C1764       C  0.18865714  0.02529425  0.47491486     0.18900
C1765       C  0.18679598  0.03245994  0.49988459    -0.09000
C1766       C  0.20051694  0.05261342  0.50854858    -0.01900
H1767       H  0.20520677  0.03369332  0.43956792     0.05500
C1768       C  0.17697646  0.00240500  0.46559390     0.20900
H1769       H  0.20011194  0.05707748  0.52807454     0.10600
C1770       C  0.18661505  0.97951473  0.47287698    -0.15300
C1771       C  0.17793292  0.95751323  0.46236585     0.03600
C1772       C  0.15925949  0.95822590  0.44383198    -0.10600
C1773       C  0.14906392  0.98133745  0.43744424    -0.00600
C1774       C  0.15772742  0.00316234  0.44809794    -0.05800
H1775       H  0.20149832  0.97882595  0.48635988     0.06600
H1776       H  0.13445051  0.98263174  0.42372911     0.10000
Br1777     Br  0.16667198  0.01457699  0.52296099    -0.05500
Br1778     Br  0.23964753  0.07519910  0.44495472    -0.02500
Br1779     Br  0.19344147  0.92770608  0.47373517     0.00400
Br1780     Br  0.14272548  0.03369125  0.43821719    -0.04000
C1781       C  0.07930416  0.84921613  0.46482363    -0.11400
C1782       C  0.06732743  0.82608948  0.46382585     0.04100
C1783       C  0.05601808  0.81648226  0.48503991    -0.11900
C1784       C  0.05630570  0.82940606  0.50752576     0.18900
C1785       C  0.06804661  0.85251347  0.50858503    -0.09000
C1786       C  0.07943437  0.86218975  0.48740157    -0.01900
H1787       H  0.04749113  0.79842704  0.48417038     0.05500
C1788       C  0.04559708  0.81765145  0.52987757     0.20900
H1789       H  0.08854559  0.87993421  0.48863230     0.10600
C1790       C  0.06155753  0.80994661  0.54895576    -0.15300
C1791       C  0.05266679  0.79571103  0.56867222     0.03600
C1792       C  0.02729311  0.78929116  0.56970522    -0.10600
C1793       C  0.01113579  0.79824473  0.55133774    -0.00600
C1794       C  0.02008808  0.81199389  0.53140841    -0.05800
H1795       H  0.08128220  0.81385538  0.54776841     0.06600
H1796       H  0.99167120  0.79306517  0.55164197     0.10000
Br1797     Br  0.06869440  0.87153914  0.53851317    -0.05500
Br1798     Br  0.06770404  0.80555671  0.43487060    -0.02500
Br1799     Br  0.07642028  0.78299821  0.59187127     0.00400
Br1800     Br  0.99694456  0.82138911  0.50608008    -0.04000
C1801       C  0.03951884  0.78321251  0.20766765    -0.11400
C1802       C  0.06478291  0.77855285  0.21283616     0.04100
C1803       C  0.07636816  0.79014685  0.23299813    -0.11900
C1804       C  0.06304709  0.80635188  0.24837940     0.18900
C1805       C  0.03830746  0.81237580  0.24212440    -0.09000
C1806       C  0.02671736  0.80067107  0.22208240    -0.01900
H1807       H  0.09549925  0.78563042  0.23737003     0.05500
C1808       C  0.07495022  0.81593363  0.27130682     0.20900
H1809       H  0.00720429  0.80422223  0.21853060     0.10600
C1810       C  0.09440666  0.83296657  0.26950739    -0.15300
C1811       C  0.10596657  0.84252697  0.29071525     0.03600
C1812       C  0.09827574  0.83474140  0.31456988    -0.10600
C1813       C  0.07893955  0.81738180  0.31618783    -0.00600
C1814       C  0.06742323  0.80793331  0.29495499    -0.05800
H1815       H  0.10034131  0.83924175  0.25140846     0.06600
H1816       H  0.07269003  0.81101216  0.33415221     0.10000
Br1817     Br  0.01939846  0.83592760  0.26084464    -0.05500
Br1818     Br  0.08347376  0.75486992  0.19416845    -0.02500
Br1819     Br  0.13081392  0.86735808  0.28541451     0.00400
Br1820     Br  0.04189871  0.78363649  0.29923105    -0.04000
C1821       C  0.17714380  0.80751120  0.41748243    -0.11400
C1822       C  0.17027315  0.78588747  0.40434784     0.04100
C1823       C  0.17866914  0.76279206  0.41230949    -0.11900
C1824       C  0.19332503  0.76055364  0.43353319     0.18900
C1825       C  0.19968160  0.78184628  0.44701052    -0.09000
C1826       C  0.19161294  0.80502496  0.43897518    -0.01900
H1827       H  0.17340645  0.74640956  0.40209623     0.05500
C1828       C  0.20236107  0.73604617  0.44138098     0.20900
H1829       H  0.19681593  0.82119531  0.44953747     0.10600
C1830       C  0.22437832  0.72673513  0.43101580    -0.15300
C1831       C  0.23655499  0.70663594  0.44181711     0.03600
C1832       C  0.22668669  0.69568010  0.46325939    -0.10600
C1833       C  0.20337360  0.70341164  0.47203082    -0.00600
C1834       C  0.19111584  0.72341238  0.46114368    -0.05800
H1835       H  0.23296028  0.73612781  0.41557260     0.06600
H1836       H  0.19571586  0.69524036  0.48861776     0.10000
Br1837     Br  0.21958013  0.78002930  0.47643230    -0.05500
Br1838     Br  0.14787765  0.78601201  0.37660101    -0.02500
Br1839     Br  0.26789626  0.69630724  0.42834820     0.00400
Br1840     Br  0.16020104  0.73426314  0.47515908    -0.04000
C1841       C  0.20771116  0.95741488  0.72836101    -0.11400
C1842       C  0.22467536  0.94153445  0.74036024     0.04100
C1843       C  0.24410411  0.93065527  0.72703496    -0.11900
C1844       C  0.24666780  0.93483731  0.70161057     0.18900
C1845       C  0.22816635  0.94836026  0.68908531    -0.09000
C1846       C  0.20893937  0.95976261  0.70251656    -0.01900
H1847       H  0.25786918  0.91973449  0.73672207     0.05500
C1848       C  0.27000403  0.92708529  0.68920364     0.20900
H1849       H  0.19592767  0.97167398  0.69299170     0.10600
C1850       C  0.27082677  0.90509255  0.67574277    -0.15300
C1851       C  0.29296272  0.89707920  0.66455454     0.03600
C1852       C  0.31513628  0.91109724  0.66713731    -0.10600
C1853       C  0.31395123  0.93340003  0.68033878    -0.00600
C1854       C  0.29172328  0.94138732  0.69127738    -0.05800
H1855       H  0.25407931  0.89415358  0.67382158     0.06600
H1856       H  0.33045073  0.94465447  0.68238430     0.10000
Br1857     Br  0.22950178  0.95295562  0.65396553    -0.05500
Br1858     Br  0.22263129  0.93496354  0.77520145    -0.02500
Br1859     Br  0.29077231  0.86761839  0.64490712     0.00400
Br1860     Br  0.29172306  0.97214822  0.70878266    -0.04000
C1861       C  0.29993968  0.06726111  0.52827260    -0.11400
C1862       C  0.31331311  0.05308875  0.51090447     0.04100
C1863       C  0.32842730  0.03372219  0.51892600    -0.11900
C1864       C  0.33034324  0.02820793  0.54414396     0.18900
C1865       C  0.31881273  0.04374810  0.56162323    -0.09000
C1866       C  0.30370509  0.06318898  0.55359597    -0.01900
H1867       H  0.33738209  0.02194648  0.50540049     0.05500
C1868       C  0.34114916  0.00431045  0.55149110     0.20900
H1869       H  0.29334908  0.07384754  0.56706814     0.10600
C1870       C  0.36664948  0.00229330  0.55634480    -0.15300
C1871       C  0.37686991  0.97985794  0.56412445     0.03600
C1872       C  0.36146058  0.95897100  0.56691118    -0.10600
C1873       C  0.33616982  0.96082033  0.56088431    -0.00600
C1874       C  0.32594229  0.98330083  0.55338760    -0.05800
H1875       H  0.37852957  0.01829124  0.55446118     0.06600
H1876       H  0.32405241  0.94506885  0.56328035     0.10000
Br1877     Br  0.32130571  0.03762885  0.59645351    -0.05500
Br1878     Br  0.30970476  0.05819216  0.47597660    -0.02500
Br1879     Br  0.41199973  0.97859049  0.57044089     0.00400
Br1880     Br  0.29086346  0.98483297  0.54691298    -0.04000
C1881       C  0.44617653  0.85520352  0.54140668    -0.11400
C1882       C  0.46110619  0.83374296  0.54101469     0.04100
C1883       C  0.47152924  0.82551580  0.51863822    -0.11900
C1884       C  0.46775543  0.83847699  0.49648457     0.18900
C1885       C  0.45425381  0.86063819  0.49710410    -0.09000
C1886       C  0.44345305  0.86868984  0.51929790    -0.01900
H1887       H  0.48198908  0.80845507  0.51835507     0.05500
C1888       C  0.47629210  0.82741468  0.47278549     0.20900
H1889       H  0.43254047  0.88547611  0.51917859     0.10600
C1890       C  0.45906445  0.81470769  0.45801164    -0.15300
C1891       C  0.46697599  0.80050891  0.43778432     0.03600
C1892       C  0.49245683  0.79915359  0.43179823    -0.10600
C1893       C  0.50947017  0.81313577  0.44563944    -0.00600
C1894       C  0.50158154  0.82715590  0.46600384    -0.05800
H1895       H  0.43956729  0.81467123  0.46310954     0.06600
H1896       H  0.52917424  0.81181213  0.44160746     0.10000
Br1897     Br  0.45020960  0.88044672  0.46804463    -0.05500
Br1898     Br  0.46637101  0.81372166  0.56975797    -0.02500
Br1899     Br  0.44278509  0.78100088  0.42060019     0.00400
Br1900     Br  0.52608421  0.84452533  0.48491765    -0.04000
C1901       C  0.42790999  0.83453078  0.69070950    -0.11400
C1902       C  0.45122467  0.82246191  0.69210278     0.04100
C1903       C  0.46029121  0.81437120  0.71503417    -0.11900
C1904       C  0.44648868  0.81776037  0.73680124     0.18900
C1905       C  0.42323603  0.82949119  0.73554202    -0.09000
C1906       C  0.41418429  0.83779032  0.71274172    -0.01900
H1907       H  0.47797542  0.80476470  0.71582052     0.05500
C1908       C  0.45573813  0.80693031  0.76017631     0.20900
H1909       H  0.39631645  0.84706712  0.71235233     0.10600
C1910       C  0.47368341  0.81938951  0.77433885    -0.15300
C1911       C  0.48525999  0.80772684  0.79447076     0.03600
C1912       C  0.47895088  0.78330176  0.80042876    -0.10600
C1913       C  0.45964382  0.77170240  0.78741974    -0.00600
C1914       C  0.44816842  0.78323433  0.76737813    -0.05800
H1915       H  0.47945862  0.83772849  0.76905625     0.06600
H1916       H  0.45492783  0.75277028  0.79159205     0.10000
Br1917     Br  0.40321880  0.83424200  0.76456019    -0.05500
Br1918     Br  0.47084239  0.81479618  0.66342439    -0.02500
Br1919     Br  0.51102600  0.82482285  0.81194436     0.00400
Br1920     Br  0.42403574  0.76491368  0.74884081    -0.04000
C1921       C  0.33964427  0.80957797  0.58400950    -0.11400
C1922       C  0.33795474  0.80384460  0.55849625     0.04100
C1923       C  0.32635039  0.78207251  0.55086294    -0.11900
C1924       C  0.31712034  0.76497074  0.56797498     0.18900
C1925       C  0.31960634  0.77005695  0.59340713    -0.09000
C1926       C  0.33027603  0.79232249  0.60114240    -0.01900
H1927       H  0.32515202  0.77806512  0.53122443     0.05500
C1928       C  0.30648890  0.74153932  0.55839215     0.20900
H1929       H  0.33182999  0.79579948  0.62083104     0.10600
C1930       C  0.32140434  0.72660393  0.54308976    -0.15300
C1931       C  0.31120423  0.70689820  0.52980312     0.03600
C1932       C  0.28573575  0.70149207  0.53208414    -0.10600
C1933       C  0.27110844  0.71547497  0.54843309    -0.00600
C1934       C  0.28111999  0.73549663  0.56133873    -0.05800
H1935       H  0.34083281  0.73117363  0.54039696     0.06600
H1936       H  0.25133850  0.71181273  0.54983827     0.10000
Br1937     Br  0.31084057  0.74641110  0.61828059    -0.05500
Br1938     Br  0.35306288  0.82326646  0.53291642    -0.02500
Br1939     Br  0.33205933  0.68977797  0.50668171     0.00400
Br1940     Br  0.25846365  0.75553647  0.58007513    -0.04000
C1941       C  0.03601110  0.20619218  0.30247058    -0.11400
C1942       C  0.06106545  0.21202395  0.29765993     0.04100
C1943       C  0.07276770  0.20255189  0.27655203    -0.11900
C1944       C  0.05963917  0.18748618  0.26002827     0.18900
C1945       C  0.03528483  0.18006221  0.26588362    -0.09000
C1946       C  0.02364045  0.18944813  0.28698776    -0.01900
H1947       H  0.09164515  0.20804951  0.27229233     0.05500
C1948       C  0.07113193  0.18048247  0.23627078     0.20900
H1949       H  0.00424636  0.18518236  0.29029619     0.10600
C1950       C  0.08910451  0.16187517  0.23594836    -0.15300
C1951       C  0.09915683  0.15355364  0.21362983     0.03600
C1952       C  0.09132020  0.16417678  0.19101563    -0.10600
C1953       C  0.07356649  0.18313283  0.19144594    -0.00600
C1954       C  0.06361872  0.19147003  0.21386729    -0.05800
H1955       H  0.09478522  0.15325375  0.25314664     0.06600
H1956       H  0.06745400  0.19151732  0.17429929     0.10000
Br1957     Br  0.01674119  0.15844169  0.24470556    -0.05500
Br1958     Br  0.07889982  0.23522854  0.31767790    -0.02500
Br1959     Br  0.12173180  0.12610394  0.21534690     0.00400
Br1960     Br  0.03991623  0.21793121  0.21309503    -0.04000
C1961       C  0.03310437  0.20568809  0.93164966    -0.11400
C1962       C  0.01589270  0.18901638  0.94181157     0.04100
C1963       C  0.02297963  0.17393582  0.96158422    -0.11900
C1964       C  0.04715990  0.17527705  0.97118685     0.18900
C1965       C  0.06504370  0.18995454  0.95922381    -0.09000
C1966       C  0.05789578  0.20514533  0.93964346    -0.01900
H1967       H  0.00920809  0.16246342  0.97053770     0.05500
C1968       C  0.05269055  0.16426702  0.99549064     0.20900
H1969       H  0.07118881  0.21808044  0.93208335     0.10600
C1970       C  0.06101858  0.13991244  0.99693503    -0.15300
C1971       C  0.06974666  0.13038040  0.01933975     0.03600
C1972       C  0.07044478  0.14545898  0.04066901    -0.10600
C1973       C  0.06030378  0.16923643  0.03955577    -0.00600
C1974       C  0.05146264  0.17869755  0.01714939    -0.05800
H1975       H  0.06148710  0.12855124  0.98041824     0.06600
H1976       H  0.06057560  0.18099637  0.05579149     0.10000
Br1977     Br  0.09877150  0.19168836  0.97071540    -0.05500
Br1978     Br  0.98189605  0.18845604  0.93107787    -0.02500
Br1979     Br  0.08041452  0.09662135  0.01989185     0.00400
Br1980     Br  0.03911972  0.21188970  0.01649469    -0.04000
C1981       C  0.20250138  0.92422955  0.34384855    -0.11400
C1982       C  0.22394959  0.92610009  0.35879264     0.04100
C1983       C  0.24581158  0.93633938  0.34916917    -0.11900
C1984       C  0.24660706  0.94492191  0.32475965     0.18900
C1985       C  0.22499384  0.94364672  0.31004350    -0.09000
C1986       C  0.20314048  0.93337388  0.31964395    -0.01900
H1987       H  0.26220209  0.93771343  0.36077218     0.05500
C1988       C  0.26982164  0.95568725  0.31485364     0.20900
H1989       H  0.18671325  0.93222344  0.30808733     0.10600
C1990       C  0.28523840  0.94138898  0.29952503    -0.15300
C1991       C  0.30492778  0.95219929  0.28647869     0.03600
C1992       C  0.30938728  0.97762932  0.28880926    -0.10600
C1993       C  0.29500445  0.99150693  0.30545394    -0.00600
C1994       C  0.27535480  0.98073817  0.31844692    -0.05800
H1995       H  0.28109319  0.92208075  0.29667189     0.06600
H1996       H  0.29801623  0.01117094  0.30704873     0.10000
Br1997     Br  0.22452114  0.95602220  0.27682621    -0.05500
Br1998     Br  0.22385251  0.91592629  0.39277641    -0.02500
Br1999     Br  0.32346323  0.93221669  0.26370483     0.00400
Br2000     Br  0.25510920  0.00141630  0.33904803    -0.04000
C2001       C  0.19949707  0.08516708  0.16437505    -0.11400
C2002       C  0.22240619  0.09787514  0.16136963     0.04100
C2003       C  0.24435250  0.08795933  0.17107615    -0.11900
C2004       C  0.24420557  0.06556308  0.18372928     0.18900
C2005       C  0.22155899  0.05304385  0.18713474    -0.09000
C2006       C  0.19954098  0.06272817  0.17730484    -0.01900
H2007       H  0.26175787  0.09773114  0.16860680     0.05500
C2008       C  0.26767158  0.05598452  0.19418063     0.20900
H2009       H  0.18230927  0.05276447  0.18007973     0.10600
C2010       C  0.27656250  0.06606943  0.21632143    -0.15300
C2011       C  0.29674010  0.05535628  0.22855302     0.03600
C2012       C  0.30834978  0.03429069  0.21859442    -0.10600
C2013       C  0.30061554  0.02527932  0.19552160    -0.00600
C2014       C  0.28046060  0.03612861  0.18318632    -0.05800
H2015       H  0.26702492  0.08155700  0.22470281     0.06600
H2016       H  0.30924930  0.00894060  0.18785265     0.10000
Br2017     Br  0.21975454  0.02310419  0.20584229    -0.05500
Br2018     Br  0.22590599  0.12822336  0.14339455    -0.02500
Br2019     Br  0.30654675  0.06872458  0.25993944     0.00400
Br2020     Br  0.27020454  0.02266968  0.15200495    -0.04000
C2021       C  0.15379677  0.04194042  0.06408891    -0.11400
C2022       C  0.17430073  0.04148098  0.04765628     0.04100
C2023       C  0.18318586  0.01889241  0.03870703    -0.11900
C2024       C  0.17222054  0.99664200  0.04597055     0.18900
C2025       C  0.15131875  0.99703354  0.06145065    -0.09000
C2026       C  0.14211778  0.01949805  0.07012107    -0.01900
H2027       H  0.19949868  0.01857790  0.02694595     0.05500
C2028       C  0.18467207  0.97331671  0.03945129     0.20900
H2029       H  0.12626112  0.01926084  0.08247845     0.10600
C2030       C  0.20252231  0.96381460  0.05576322    -0.15300
C2031       C  0.21757461  0.94400889  0.04876185     0.03600
C2032       C  0.21476123  0.93339818  0.02518405    -0.10600
C2033       C  0.19583683  0.94190105  0.00946201    -0.00600
C2034       C  0.18073865  0.96175206  0.01650401    -0.05800
H2035       H  0.20557220  0.97262205  0.07349008     0.06600
H2036       H  0.19382714  0.93407915  0.99113694     0.10000
Br2037     Br  0.13569176  0.96723124  0.07231748    -0.05500
Br2038     Br  0.19274262  0.07033366  0.03853867    -0.02500
Br2039     Br  0.24329012  0.93348135  0.07098521     0.00400
Br2040     Br  0.15599771  0.97345062  0.99382980    -0.04000
C2041       C  0.23118359  0.30201710  0.04528578    -0.11400
C2042       C  0.20546946  0.29837670  0.04194044     0.04100
C2043       C  0.19385324  0.27801483  0.05277510    -0.11900
C2044       C  0.20764008  0.26096991  0.06666127     0.18900
C2045       C  0.23288688  0.26565140  0.07160474    -0.09000
C2046       C  0.24434912  0.28624759  0.06122765    -0.01900
H2047       H  0.17440239  0.27451333  0.04890165     0.05500
C2048       C  0.19614805  0.23725220  0.07351453     0.20900
H2049       H  0.26421647  0.28865116  0.06366059     0.10600
C2050       C  0.20368693  0.21570018  0.06120325    -0.15300
C2051       C  0.19318827  0.19283656  0.06700780     0.03600
C2052       C  0.17490610  0.19131949  0.08569598    -0.10600
C2053       C  0.16727846  0.21308268  0.09773465    -0.00600
C2054       C  0.17752596  0.23588032  0.09164947    -0.05800
H2055       H  0.21789301  0.21670900  0.04699801     0.06600
H2056       H  0.15304248  0.21243027  0.11192989     0.10000
Br2057     Br  0.25293470  0.24333989  0.09062378    -0.05500
Br2058     Br  0.18629325  0.31846583  0.01987043    -0.02500
Br2059     Br  0.20547123  0.16449980  0.04958380     0.00400
Br2060     Br  0.16580530  0.26455851  0.10885883    -0.04000
C2061       C  0.05173728  0.92915147  0.35691673    -0.11400
C2062       C  0.02774057  0.92265291  0.36579454     0.04100
C2063       C  0.00641208  0.93109773  0.35364822    -0.11900
C2064       C  0.00822622  0.94601678  0.33272518     0.18900
C2065       C  0.03188997  0.95324346  0.32424145    -0.09000
C2066       C  0.05338684  0.94490595  0.33636339    -0.01900
H2067       H  0.98820192  0.92571413  0.36040596     0.05500
C2068       C  0.98526668  0.95345644  0.31962253     0.20900
H2069       H  0.07145987  0.95001683  0.32907867     0.10600
C2070       C  0.97314716  0.97535384  0.32636465    -0.15300
C2071       C  0.95301457  0.98421292  0.31249126     0.03600
C2072       C  0.94469416  0.97099603  0.29166074    -0.10600
C2073       C  0.95592284  0.94834607  0.28585980    -0.00600
C2074       C  0.97600202  0.93947906  0.29972842    -0.05800
H2075       H  0.98006062  0.98610154  0.34178065     0.06600
H2076       H  0.94998594  0.93826021  0.26960928     0.10000
Br2077     Br  0.03552576  0.97380462  0.29565141    -0.05500
Br2078     Br  0.02230920  0.90267158  0.39464161    -0.02500
Br2079     Br  0.93899336  0.01554558  0.32114224     0.00400
Br2080     Br  0.99124465  0.90900968  0.28993862    -0.04000
C2081       C  0.94403219  0.01606687  0.21337648    -0.11400
C2082       C  0.94974866  0.04136028  0.21386890     0.04100
C2083       C  0.96950237  0.05048053  0.19964134    -0.11900
C2084       C  0.98403358  0.03471931  0.18485862     0.18900
C2085       C  0.97778871  0.00954643  0.18371116    -0.09000
C2086       C  0.95794884  0.00046810  0.19784682    -0.01900
H2087       H  0.97426849  0.06980428  0.20098849     0.05500
C2088       C  0.00641258  0.04468296  0.17208881     0.20900
H2089       H  0.95422408  0.98087254  0.19778970     0.10600
C2090       C  0.03025099  0.03653355  0.17905701    -0.15300
C2091       C  0.05185895  0.04669804  0.16859042     0.03600
C2092       C  0.04985488  0.06562723  0.15067926    -0.10600
C2093       C  0.02580058  0.07320925  0.14344494    -0.00600
C2094       C  0.00438384  0.06312493  0.15399329    -0.05800
H2095       H  0.03206626  0.02255431  0.19319054     0.06600
H2096       H  0.02344771  0.08745452  0.12966000     0.10000
Br2097     Br  0.99630153  0.98669802  0.16377098    -0.05500
Br2098     Br  0.93295966  0.06361903  0.23583233    -0.02500
Br2099     Br  0.08310954  0.03449883  0.18075404     0.00400
Br2100     Br  0.97274895  0.07527373  0.14289089    -0.04000
C2101       C  0.56952599  0.98479549  0.71236807    -0.11400
C2102       C  0.56485470  0.95950862  0.70917275     0.04100
C2103       C  0.54593037  0.95186248  0.69316176    -0.11900
C2104       C  0.53138171  0.96913715  0.68036784     0.18900
C2105       C  0.53698937  0.99433675  0.68248412    -0.09000
C2106       C  0.55596376  0.00199324  0.69842902    -0.01900
H2107       H  0.54155631  0.93243639  0.69180589     0.05500
C2108       C  0.50842905  0.96057781  0.66805243     0.20900
H2109       H  0.55933718  0.02150864  0.70091533     0.10600
C2110       C  0.48588058  0.96242683  0.68093687    -0.15300
C2111       C  0.46426096  0.95115744  0.67203717     0.03600
C2112       C  0.46499377  0.93767711  0.64963083    -0.10600
C2113       C  0.48749417  0.93686871  0.63623643    -0.00600
C2114       C  0.50905619  0.94818502  0.64525885    -0.05800
H2115       H  0.48538458  0.97179083  0.69866819     0.06600
H2116       H  0.48847795  0.92696887  0.61885173     0.10000
Br2117     Br  0.51841568  0.01887201  0.66490928    -0.05500
Br2118     Br  0.58188298  0.93500601  0.72831166    -0.02500
Br2119     Br  0.43532467  0.95297648  0.69280490     0.00400
Br2120     Br  0.53907063  0.94600340  0.62618740    -0.04000
C2121       C  0.29471944  0.93071211  0.98146155    -0.11400
C2122       C  0.28918265  0.94430189  0.95997485     0.04100
C2123       C  0.30553378  0.96247737  0.95183352    -0.11900
C2124       C  0.32759097  0.96738156  0.96472397     0.18900
C2125       C  0.33408936  0.95258356  0.98511520    -0.09000
C2126       C  0.31760539  0.93436624  0.99339983    -0.01900
H2127       H  0.30050014  0.97359641  0.93596224     0.05500
C2128       C  0.34209791  0.98936256  0.95755477     0.20900
H2129       H  0.32200848  0.92403413  0.00996910     0.10600
C2130       C  0.34026882  0.01080557  0.97196522    -0.15300
C2131       C  0.34971988  0.03336684  0.96348816     0.03600
C2132       C  0.36156576  0.03465348  0.94009546    -0.10600
C2133       C  0.36439977  0.01257995  0.92647139    -0.00600
C2134       C  0.35460967  0.99030810  0.93483554    -0.05800
H2135       H  0.33040177  0.01021108  0.98940290     0.06600
H2136       H  0.37344134  0.01261216  0.90859774     0.10000
Br2137     Br  0.36485825  0.95712672  0.00241557    -0.05500
Br2138     Br  0.25873923  0.93965785  0.94200362    -0.02500
Br2139     Br  0.34475781  0.06138081  0.98462525     0.00400
Br2140     Br  0.35784848  0.96179017  0.91405364    -0.04000
C2141       C  0.33569255  0.18472602  0.92698282    -0.11400
C2142       C  0.32457972  0.18646845  0.95072010     0.04100
C2143       C  0.31567356  0.20926569  0.95922340    -0.11900
C2144       C  0.31746606  0.23049360  0.94458174     0.18900
C2145       C  0.32835497  0.22884980  0.92106459    -0.09000
C2146       C  0.33721242  0.20624021  0.91247572    -0.01900
H2147       H  0.30718717  0.21045472  0.97738057     0.05500
C2148       C  0.30803449  0.25423595  0.95421800     0.20900
H2149       H  0.34588675  0.20575049  0.89438391     0.10600
C2150       C  0.32133833  0.26637653  0.97290122    -0.15300
C2151       C  0.31181056  0.28773266  0.98394097     0.03600
C2152       C  0.28886269  0.29747644  0.97602266    -0.10600
C2153       C  0.27611000  0.28590034  0.95657974    -0.00600
C2154       C  0.28540696  0.26430950  0.94581603    -0.05800
H2155       H  0.33866243  0.25866002  0.97957720     0.06600
H2156       H  0.25791870  0.29256343  0.95113507     0.10000
Br2157     Br  0.33235513  0.25722123  0.90034593    -0.05500
Br2158     Br  0.32029775  0.15881342  0.97242737    -0.02500
Br2159     Br  0.32933787  0.30155449  0.01154367     0.00400
Br2160     Br  0.26533363  0.24780363  0.92160101    -0.04000
C2161       C  0.43792233  0.15085480  0.96674374    -0.11400
C2162       C  0.43706927  0.14087123  0.99097672     0.04100
C2163       C  0.44664147  0.15421594  0.01103920    -0.11900
C2164       C  0.45725574  0.17749400  0.00772526     0.18900
C2165       C  0.45857405  0.18734605  0.98364205    -0.09000
C2166       C  0.44910449  0.17402477  0.96347377    -0.01900
H2167       H  0.44591878  0.14628994  0.02943820     0.05500
C2168       C  0.46764587  0.19078842  0.02945833     0.20900
H2169       H  0.44970398  0.18228245  0.94522542     0.10600
C2170       C  0.49353700  0.19240765  0.03218377    -0.15300
C2171       C  0.50406328  0.20604420  0.05153132     0.03600
C2172       C  0.48867097  0.21803613  0.06896405    -0.10600
C2173       C  0.46276480  0.21550144  0.06686902    -0.00600
C2174       C  0.45220455  0.20213462  0.04726188    -0.05800
H2175       H  0.50560303  0.18372836  0.01868243     0.06600
H2176       H  0.45068708  0.22544687  0.07945589     0.10000
Br2177     Br  0.47197754  0.21949423  0.97761984    -0.05500
Br2178     Br  0.42407506  0.10872602  0.99810696    -0.02500
Br2179     Br  0.53958072  0.20948660  0.05228726     0.00400
Br2180     Br  0.41666690  0.20195587  0.04416773    -0.04000
C2181       C  0.31323359  0.07992091  0.84322790    -0.11400
C2182       C  0.28966142  0.09120581  0.84718698     0.04100
C2183       C  0.26794697  0.07993846  0.83834775    -0.11900
C2184       C  0.26893427  0.05758486  0.82547051     0.18900
C2185       C  0.29230335  0.04669025  0.82084388    -0.09000
C2186       C  0.31402920  0.05763755  0.82995429    -0.01900
H2187       H  0.25007247  0.08863612  0.84166550     0.05500
C2188       C  0.24562310  0.04650301  0.81583987     0.20900
H2189       H  0.33172605  0.04876504  0.82629535     0.10600
C2190       C  0.23286620  0.05829499  0.79651946    -0.15300
C2191       C  0.21313212  0.04657687  0.78435613     0.03600
C2192       C  0.20594462  0.02271298  0.79148483    -0.10600
C2193       C  0.21734824  0.01179190  0.81209143    -0.00600
C2194       C  0.23683299  0.02363107  0.82448062    -0.05800
H2195       H  0.23912921  0.07608887  0.79002411     0.06600
H2196       H  0.21195982  0.99342577  0.81772101     0.10000
Br2197     Br  0.29566559  0.01753149  0.80099552    -0.05500
Br2198     Br  0.28506325  0.12142217  0.86520311    -0.02500
Br2199     Br  0.19802786  0.06281375  0.75668925     0.00400
Br2200     Br  0.25138156  0.00751606  0.85255210    -0.04000
C2201       C  0.46615164  0.06810475  0.85779680    -0.11400
C2202       C  0.46603022  0.05069703  0.83821921     0.04100
C2203       C  0.48858523  0.04260633  0.82800017    -0.11900
C2204       C  0.51144016  0.05123764  0.83694640     0.18900
C2205       C  0.51176036  0.06763982  0.85696830    -0.09000
C2206       C  0.48934795  0.07587957  0.86722244    -0.01900
H2207       H  0.48831132  0.02987239  0.81257579     0.05500
C2208       C  0.53452627  0.04387080  0.82403805     0.20900
H2209       H  0.49018395  0.08887348  0.88238829     0.10600
C2210       C  0.54235249  0.05763896  0.80358052    -0.15300
C2211       C  0.56148679  0.04902864  0.78832501     0.03600
C2212       C  0.57283601  0.02615534  0.79324696    -0.10600
C2213       C  0.56627652  0.01326316  0.81475950    -0.00600
C2214       C  0.54733550  0.02212491  0.83027797    -0.05800
H2215       H  0.53279844  0.07457924  0.79884900     0.06600
H2216       H  0.57481028  0.99560193  0.81866728     0.10000
Br2217     Br  0.54240464  0.07969028  0.87044720    -0.05500
Br2218     Br  0.43623915  0.03784920  0.82342680    -0.02500
Br2219     Br  0.57043910  0.06815267  0.75986525     0.00400
Br2220     Br  0.53844913  0.00346980  0.85901705    -0.04000
C2221       C  0.48168087  0.21612698  0.71287810    -0.11400
C2222       C  0.45562671  0.21852193  0.71494276     0.04100
C2223       C  0.44299137  0.20731778  0.73470315    -0.11900
C2224       C  0.45601975  0.19386271  0.75273265     0.18900
C2225       C  0.48181148  0.19014310  0.74969633    -0.09000
C2226       C  0.49439278  0.20134159  0.73003364    -0.01900
H2227       H  0.42313264  0.21014776  0.73669398     0.05500
C2228       C  0.44287462  0.18502403  0.77527265     0.20900
H2229       H  0.51443212  0.19947825  0.72878899     0.10600
C2230       C  0.42599255  0.16545213  0.77355827    -0.15300
C2231       C  0.41456442  0.15578173  0.79478241     0.03600
C2232       C  0.42009889  0.16564822  0.81841263    -0.10600
C2233       C  0.43654493  0.18563990  0.81996130    -0.00600
C2234       C  0.44751650  0.19559912  0.79867280    -0.05800
H2235       H  0.42215860  0.15724368  0.75566653     0.06600
H2236       H  0.44076900  0.19367582  0.83783445     0.10000
Br2237     Br  0.50081927  0.17063281  0.77247735    -0.05500
Br2238     Br  0.43697068  0.23898958  0.69276353    -0.02500
Br2239     Br  0.39313318  0.12785207  0.79043787     0.00400
Br2240     Br  0.46827211  0.22408695  0.80232871    -0.04000
C2241       C  0.66945993  0.31887750  0.91272177    -0.11400
C2242       C  0.66568276  0.29652798  0.89960413     0.04100
C2243       C  0.67739121  0.27480171  0.90751245    -0.11900
C2244       C  0.69324418  0.27482332  0.92805390     0.18900
C2245       C  0.69831091  0.29723162  0.94012779    -0.09000
C2246       C  0.68642601  0.31890082  0.93253275    -0.01900
H2247       H  0.67399823  0.25773018  0.89765254     0.05500
C2248       C  0.70428577  0.25141821  0.93694676     0.20900
H2249       H  0.69007436  0.33576460  0.94263538     0.10600
C2250       C  0.72602416  0.24234555  0.92579695    -0.15300
C2251       C  0.73886727  0.22235594  0.93612581     0.03600
C2252       C  0.72969596  0.21080483  0.95758456    -0.10600
C2253       C  0.70717366  0.21899402  0.96785567    -0.00600
C2254       C  0.69452599  0.23920128  0.95776592    -0.05800
H2255       H  0.73372247  0.25165354  0.90986158     0.06600
H2256       H  0.70033710  0.21075186  0.98475723     0.10000
Br2257     Br  0.72133035  0.29900240  0.96719265    -0.05500
Br2258     Br  0.64592842  0.29438310  0.87006145    -0.02500
Br2259     Br  0.77004110  0.21276941  0.92173615     0.00400
Br2260     Br  0.66499454  0.25066938  0.97408785    -0.04000
C2261       C  0.56149825  0.36280848  0.95861889    -0.11400
C2262       C  0.54774357  0.34064758  0.95803467     0.04100
C2263       C  0.53844995  0.33067197  0.98011876    -0.11900
C2264       C  0.54210980  0.34261948  0.00290203     0.18900
C2265       C  0.55455124  0.36532479  0.00330821    -0.09000
C2266       C  0.56411745  0.37514512  0.98142274    -0.01900
H2267       H  0.52854456  0.31331678  0.97956792     0.05500
C2268       C  0.53417391  0.33045363  0.02615271     0.20900
H2269       H  0.57427165  0.39232789  0.98246866     0.10600
C2270       C  0.55240746  0.32135222  0.04237334    -0.15300
C2271       C  0.54585639  0.30700525  0.06288255     0.03600
C2272       C  0.52063239  0.30198433  0.06778591    -0.10600
C2273       C  0.50234391  0.31241999  0.05236281    -0.00600
C2274       C  0.50891784  0.32629544  0.03155378    -0.05800
H2275       H  0.57190984  0.32423104  0.03824053     0.06600
H2276       H  0.48290248  0.30819601  0.05550649     0.10000
Br2277     Br  0.55876392  0.38370593  0.03334013    -0.05500
Br2278     Br  0.54002038  0.32369369  0.92782500    -0.02500
Br2279     Br  0.57209218  0.29188638  0.08152894     0.00400
Br2280     Br  0.48288215  0.33800659  0.01029440    -0.04000
C2281       C  0.69697599  0.43137038  0.84430807    -0.11400
C2282       C  0.69660703  0.44851086  0.82455545     0.04100
C2283       C  0.71899255  0.45598388  0.81369081    -0.11900
C2284       C  0.74190153  0.44696332  0.82214685     0.18900
C2285       C  0.74246119  0.43029751  0.84189810    -0.09000
C2286       C  0.72021289  0.42258540  0.85270155    -0.01900
H2287       H  0.71858037  0.46907261  0.79859465     0.05500
C2288       C  0.76493590  0.45535462  0.81000961     0.20900
H2289       H  0.72123157  0.40948562  0.86775317     0.10600
C2290       C  0.77890371  0.47427273  0.82090913    -0.15300
C2291       C  0.79847356  0.48534066  0.80796369     0.03600
C2292       C  0.80461268  0.47700055  0.78406401    -0.10600
C2293       C  0.79157495  0.45704144  0.77387827    -0.00600
C2294       C  0.77167021  0.44640452  0.78653063    -0.05800
H2295       H  0.77357689  0.48143774  0.83885459     0.06600
H2296       H  0.79570999  0.45096171  0.75522940     0.10000
Br2297     Br  0.77316300  0.41730858  0.85444372    -0.05500
Br2298     Br  0.66678369  0.46341499  0.81182458    -0.02500
Br2299     Br  0.81405696  0.51375915  0.82217863     0.00400
Br2300     Br  0.75291363  0.42110926  0.77023831    -0.04000
C2301       C  0.54960012  0.45777457  0.85889666    -0.11400
C2302       C  0.54752274  0.46539882  0.83387184     0.04100
C2303       C  0.52493890  0.47485428  0.82513306    -0.11900
C2304       C  0.50424648  0.47718485  0.84071534     0.18900
C2305       C  0.50658479  0.47120244  0.86581651    -0.09000
C2306       C  0.52904894  0.46165681  0.87472115    -0.01900
H2307       H  0.52323974  0.47973758  0.80577859     0.05500
C2308       C  0.48003803  0.48398666  0.82971394     0.20900
H2309       H  0.53004600  0.45650217  0.89403643     0.10600
C2310       C  0.46323690  0.46520629  0.82351103    -0.15300
C2311       C  0.44278464  0.47000762  0.80817672     0.03600
C2312       C  0.43870791  0.49403537  0.79927590    -0.10600
C2313       C  0.45433806  0.51315294  0.80738055    -0.00600
C2314       C  0.47508032  0.50824262  0.82216423    -0.05800
H2315       H  0.46709143  0.44642937  0.82909306     0.06600
H2316       H  0.45164545  0.53163342  0.80033697     0.10000
Br2317     Br  0.47939113  0.47540729  0.88839428    -0.05500
Br2318     Br  0.57394872  0.46299485  0.80998886    -0.02500
Br2319     Br  0.42316131  0.44267374  0.79715646     0.00400
Br2320     Br  0.49737827  0.53474952  0.82965932    -0.04000
C2321       C  0.53791869  0.28727122  0.70823439    -0.11400
C2322       C  0.56056273  0.28092396  0.71964194     0.04100
C2323       C  0.57026296  0.29578972  0.73842936    -0.11900
C2324       C  0.55768663  0.31712429  0.74610019     0.25300
C2325       C  0.53613539  0.32461809  0.73326379    -0.09000
C2326       C  0.52628026  0.30956022  0.71459072    -0.01900
H2327       H  0.58709842  0.29011261  0.74786620     0.05500
C2328       C  0.56644830  0.33015893  0.76856408     0.20900
H2329       H  0.50871230  0.31448887  0.70609536     0.10600
C2330       C  0.57808904  0.35303709  0.76636930    -0.15300
C2331       C  0.58738054  0.36536944  0.78717951     0.03600
C2332       C  0.58531065  0.35451718  0.81109432    -0.10600
C2333       C  0.57323321  0.33163487  0.81304567    -0.00600
C2334       C  0.56383550  0.31956062  0.79216767    -0.05800
H2335       H  0.58005297  0.36132555  0.74824045     0.06600
H2336       H  0.57103284  0.32293672  0.83094045     0.10000
Br2337     Br  0.51847479  0.35410220  0.74199382    -0.05500
Br2338     Br  0.57781158  0.25110643  0.71131977    -0.02500
Br2339     Br  0.60219989  0.39695018  0.78070641     0.00400
Br2340     Br  0.54697612  0.28880549  0.79686212    -0.04000
C2341       C  0.65079143  0.46557806  0.94957138    -0.11400
C2342       C  0.66924994  0.46472008  0.96809851     0.04100
C2343       C  0.67892074  0.48669503  0.97772943    -0.11900
C2344       C  0.67052990  0.50971639  0.96922628     0.18900
C2345       C  0.65163246  0.51055581  0.95126255    -0.09000
C2346       C  0.64186319  0.48868005  0.94177573    -0.01900
H2347       H  0.69355252  0.48581958  0.99147522     0.05500
C2348       C  0.68345376  0.53236600  0.97751455     0.20900
H2349       H  0.62774325  0.48980691  0.92752558     0.10600
C2350       C  0.69703020  0.54603532  0.96010306    -0.15300
C2351       C  0.71263041  0.56520959  0.96757966     0.03600
C2352       C  0.71510207  0.57073998  0.99286345    -0.10600
C2353       C  0.70039420  0.55816311  0.01015351    -0.00600
C2354       C  0.68449580  0.53919356  0.00265494    -0.05800
H2355       H  0.69648481  0.54093799  0.94073000     0.06600
H2356       H  0.70236646  0.56218219  0.02969405     0.10000
Br2357     Br  0.63869551  0.54110775  0.93885146    -0.05500
Br2358     Br  0.68151521  0.43429626  0.98139205    -0.02500
Br2359     Br  0.73215449  0.58165139  0.94294543     0.00400
Br2360     Br  0.66525096  0.52267162  0.02745882    -0.04000
C2361       C  0.00156549  0.28990674  0.94067635    -0.11400
C2362       C  0.97618699  0.29498911  0.94461813     0.04100
C2363       C  0.96889121  0.30947121  0.96477805    -0.11900
C2364       C  0.98651797  0.31949502  0.98113770     0.18900
C2365       C  0.01200959  0.31502465  0.97672167    -0.09000
C2366       C  0.01928080  0.30027872  0.95669077    -0.01900
H2367       H  0.94922285  0.31228348  0.96817363     0.05500
C2368       C  0.97752796  0.33317648  0.00329391     0.20900
H2369       H  0.03883406  0.29613907  0.95408151     0.10600
C2370       C  0.98337186  0.32451810  0.02706069    -0.15300
C2371       C  0.97270308  0.33508604  0.04825815     0.03600
C2372       C  0.95480920  0.35417737  0.04583050    -0.10600
C2373       C  0.94995118  0.36347138  0.02201105    -0.00600
C2374       C  0.96131090  0.35342783  0.00101254    -0.05800
H2375       H  0.99579577  0.30893608  0.02913230     0.06600
H2376       H  0.93698856  0.37856343  0.01956935     0.10000
Br2377     Br  0.03764382  0.32833553  0.99748232    -0.05500
Br2378     Br  0.95062674  0.28075032  0.92440939    -0.02500
Br2379     Br  0.98296107  0.32154379  0.07948145     0.00400
Br2380     Br  0.95426103  0.36828757  0.96958078    -0.04000
C2381       C  0.97866158  0.27552270  0.30291980    -0.11400
C2382       C  0.99039597  0.29658505  0.29321567     0.04100
C2383       C  0.98016247  0.30880016  0.27273130    -0.11900
C2384       C  0.95863354  0.29986036  0.26103881     0.18900
C2385       C  0.94701982  0.27864699  0.27065410    -0.09000
C2386       C  0.95674066  0.26704874  0.29167792    -0.01900
H2387       H  0.98967266  0.32466916  0.26519642     0.05500
C2388       C  0.94972196  0.31166583  0.23781317     0.20900
H2389       H  0.94843566  0.24999951  0.29793466     0.10600
C2390       C  0.96514629  0.31176599  0.21685692    -0.15300
C2391       C  0.95717154  0.32204655  0.19439109     0.03600
C2392       C  0.93288114  0.33219092  0.19240211    -0.10600
C2393       C  0.91770783  0.33228757  0.21366519    -0.00600
C2394       C  0.92604193  0.32264606  0.23618993    -0.05800
H2395       H  0.98356379  0.30363518  0.21796196     0.06600
H2396       H  0.89938194  0.34062728  0.21308039     0.10000
Br2397     Br  0.92007782  0.26266632  0.25375476    -0.05500
Br2398     Br  0.02205913  0.30735776  0.30546935    -0.02500
Br2399     Br  0.98059562  0.32117074  0.16751625     0.00400
Br2400     Br  0.90498706  0.32638326  0.26463190    -0.04000
C2401       C  0.97303020  0.43942305  0.15070221    -0.11400
C2402       C  0.99657572  0.43827440  0.13892679     0.04100
C2403       C  0.01724517  0.44965552  0.14970737    -0.11900
C2404       C  0.01523194  0.46214003  0.17228299     0.18900
C2405       C  0.99161719  0.46420412  0.18358686    -0.09000
C2406       C  0.97080464  0.45302729  0.17270684    -0.01900
H2407       H  0.03518689  0.44841989  0.14058194     0.05500
C2408       C  0.03796041  0.47237489  0.18406293     0.20900
H2409       H  0.95301084  0.45403619  0.18213388     0.10600
C2410       C  0.04005997  0.49790377  0.18735102    -0.15300
C2411       C  0.05952204  0.50785471  0.20131526     0.03600
C2412       C  0.07732808  0.49219757  0.21231735    -0.10600
C2413       C  0.07653647  0.46691003  0.20712469    -0.00600
C2414       C  0.05708575  0.45692686  0.19307256    -0.05800
H2415       H  0.02590841  0.51004062  0.17991579     0.06600
H2416       H  0.08992783  0.45464372  0.21566179     0.10000
Br2417     Br  0.98709891  0.48061012  0.21474904    -0.05500
Br2418     Br  0.00189962  0.42192238  0.10782684    -0.02500
Br2419     Br  0.06019553  0.54284493  0.20629902     0.00400
Br2420     Br  0.05624797  0.42185195  0.18886878    -0.04000
C2421       C  0.84720953  0.31232183  0.08368570    -0.11400
C2422       C  0.84576276  0.28957426  0.09661370     0.04100
C2423       C  0.83584214  0.26870490  0.08493804    -0.11900
C2424       C  0.82715430  0.26975583  0.06057666     0.18900
C2425       C  0.82778865  0.29234858  0.04791355    -0.09000
C2426       C  0.83786241  0.31322786  0.05934547    -0.01900
H2427       H  0.83499152  0.25142448  0.09492601     0.05500
C2428       C  0.81628393  0.24748164  0.04899195     0.20900
H2429       H  0.83832685  0.33030906  0.04902481     0.10600
C2430       C  0.79142587  0.24166898  0.05398088    -0.15300
C2431       C  0.77945240  0.22275943  0.04110531     0.03600
C2432       C  0.79237821  0.20910267  0.02296211    -0.10600
C2433       C  0.81772802  0.21394027  0.01898151    -0.00600
C2434       C  0.82973770  0.23297149  0.03193948    -0.05800
H2435       H  0.78097204  0.25262710  0.06713780     0.06600
H2436       H  0.82777860  0.20389519  0.00482159     0.10000
Br2437     Br  0.81456462  0.29559976  0.01510860    -0.05500
Br2438     Br  0.85743739  0.28484906  0.12987720    -0.02500
Br2439     Br  0.74472864  0.21747790  0.04746991     0.00400
Br2440     Br  0.86411369  0.23944037  0.02503627    -0.04000
C2441       C  0.79894176  0.56669785  0.02801463    -0.11400
C2442       C  0.79947156  0.56061855  0.05332344     0.04100
C2443       C  0.81354588  0.54044598  0.06145799    -0.11900
C2444       C  0.82707818  0.52602249  0.04459516     0.18900
C2445       C  0.82747065  0.53275460  0.01948055    -0.09000
C2446       C  0.81341330  0.55292841  0.01134500    -0.01900
H2447       H  0.81312361  0.53538130  0.08082840     0.05500
C2448       C  0.83947205  0.50323311  0.05325911     0.20900
H2449       H  0.81265288  0.55704076  0.99175514     0.10600
C2450       C  0.82674392  0.48073236  0.05184579    -0.15300
C2451       C  0.83763081  0.45890221  0.06057434     0.03600
C2452       C  0.86178907  0.45940189  0.07088894    -0.10600
C2453       C  0.87446972  0.48201555  0.07204990    -0.00600
C2454       C  0.86356251  0.50374141  0.06328756    -0.05800
H2455       H  0.80805840  0.48026043  0.04435165     0.06600
H2456       H  0.89291318  0.48284751  0.08008468     0.10000
Br2457     Br  0.84589116  0.51401079  0.99559110    -0.05500
Br2458     Br  0.77925154  0.57790279  0.07691445    -0.02500
Br2459     Br  0.81772376  0.42960279  0.05993532     0.00400
Br2460     Br  0.88206097  0.53380028  0.06555576    -0.04000
C2461       C  0.71513654  0.46162800  0.22974526    -0.11400
C2462       C  0.71430517  0.45597654  0.20423214     0.04100
C2463       C  0.73487252  0.44464293  0.19280036    -0.11900
C2464       C  0.75650676  0.43915808  0.20629505     0.18900
C2465       C  0.75694778  0.44378786  0.23184155    -0.09000
C2466       C  0.73621172  0.45418475  0.24339161    -0.01900
H2467       H  0.73445937  0.44118074  0.17304381     0.05500
C2468       C  0.77927053  0.43055548  0.19345019     0.20900
H2469       H  0.73733876  0.45826244  0.26301635     0.10600
C2470       C  0.79476579  0.44785005  0.18199798    -0.15300
C2471       C  0.81746729  0.44080989  0.17129390     0.03600
C2472       C  0.82526803  0.41585939  0.17230313    -0.10600
C2473       C  0.80934989  0.39860469  0.18360131    -0.00600
C2474       C  0.78658146  0.40572272  0.19396660    -0.05800
H2475       H  0.78915333  0.46703687  0.18146069     0.06600
H2476       H  0.81454473  0.37933944  0.18434464     0.10000
Br2477     Br  0.78651285  0.43880731  0.25116260    -0.05500
Br2478     Br  0.68699152  0.46559149  0.18357613    -0.02500
Br2479     Br  0.83577081  0.46613625  0.15448365     0.00400
Br2480     Br  0.76585605  0.38088743  0.20838887    -0.04000
C2481       C  0.98048201  0.71464084  0.20709798    -0.11400
C2482       C  0.99085329  0.69405312  0.21907265     0.04100
C2483       C  0.97785422  0.68267021  0.23833478    -0.11900
C2484       C  0.95468382  0.69180663  0.24614330     0.18900
C2485       C  0.94389352  0.71179879  0.23347751    -0.09000
C2486       C  0.95670033  0.72285198  0.21391225    -0.01900
H2487       H  0.98638813  0.66743353  0.24808505     0.05500
C2488       C  0.94370545  0.68220849  0.26928525     0.20900
H2489       H  0.94895270  0.73914423  0.20529985     0.10600
C2490       C  0.95572883  0.68729559  0.29172058    -0.15300
C2491       C  0.94662383  0.67813415  0.31413923     0.03600
C2492       C  0.92497036  0.66334660  0.31434464    -0.10600
C2493       C  0.91278525  0.65865846  0.29173520    -0.00600
C2494       C  0.92196073  0.66788973  0.26938435    -0.05800
H2495       H  0.97252542  0.69828616  0.29172910     0.06600
H2496       H  0.89617947  0.64739959  0.29132834     0.10000
Br2497     Br  0.91328625  0.72662520  0.24415037    -0.05500
Br2498     Br  0.02353940  0.68225378  0.21103176    -0.02500
Br2499     Br  0.96580743  0.68539114  0.34321622     0.00400
Br2500     Br  0.90481487  0.65952995  0.23940550    -0.04000
C2501       C  0.95124599  0.64668068  0.46191020    -0.11400
C2502       C  0.95965417  0.63137313  0.48153110     0.04100
C2503       C  0.96862253  0.64191968  0.50352715    -0.11900
C2504       C  0.96981609  0.66751251  0.50645159     0.18900
C2505       C  0.96339655  0.68270787  0.48637790    -0.09000
C2506       C  0.95407951  0.67234576  0.46455151    -0.01900
H2507       H  0.97432747  0.63008064  0.51860501     0.05500
C2508       C  0.97755065  0.67828179  0.53050650     0.20900
H2509       H  0.94842059  0.68462649  0.44982852     0.10600
C2510       C  0.00281639  0.67851203  0.53697115    -0.15300
C2511       C  0.01110152  0.69226814  0.55731472     0.03600
C2512       C  0.99395676  0.70564963  0.57186291    -0.10600
C2513       C  0.96849094  0.70372496  0.56656945    -0.00600
C2514       C  0.96023100  0.69029004  0.54600652    -0.05800
H2515       H  0.01628772  0.66931301  0.52524993     0.06600
H2516       H  0.95518677  0.71440027  0.57717702     0.10000
Br2517     Br  0.96704074  0.71783755  0.48797861    -0.05500
Br2518     Br  0.96002000  0.59602542  0.47987970    -0.02500
Br2519     Br  0.04626207  0.69460911  0.56300749     0.00400
Br2520     Br  0.92532638  0.69054354  0.53857167    -0.04000
C2521       C  0.96184884  0.55980629  0.35582906    -0.11400
C2522       C  0.97976027  0.54726940  0.37041628     0.04100
C2523       C  0.00233784  0.53964159  0.35986465    -0.11900
C2524       C  0.00744758  0.54384331  0.33482354     0.18900
C2525       C  0.98886890  0.55438660  0.31980325    -0.09000
C2526       C  0.96649218  0.56247762  0.33034189    -0.01900
H2527       H  0.01609556  0.53055222  0.37131782     0.05500
C2528       C  0.03185614  0.53638392  0.32438385     0.20900
H2529       H  0.95298000  0.57151019  0.31857701     0.10600
C2530       C  0.03711933  0.51128513  0.32135958    -0.15300
C2531       C  0.05809028  0.50362904  0.30805628     0.03600
C2532       C  0.07442691  0.52118094  0.29782517    -0.10600
C2533       C  0.07027148  0.54624625  0.30262697    -0.00600
C2534       C  0.04916976  0.55392967  0.31584359    -0.05800
H2535       H  0.02408525  0.49764179  0.32805269     0.06600
H2536       H  0.08240083  0.55993399  0.29450444     0.10000
Br2537     Br  0.99306344  0.55767002  0.28468233    -0.05500
Br2538     Br  0.97445424  0.53903367  0.40456259    -0.02500
Br2539     Br  0.06233028  0.46905391  0.30195373     0.00400
Br2540     Br  0.04392801  0.58858674  0.32053858    -0.04000
C2541       C  0.85684969  0.54544115  0.44478164    -0.11400
C2542       C  0.83128621  0.53942762  0.44247715     0.04100
C2543       C  0.82239779  0.51705842  0.45178694    -0.11900
C2544       C  0.83830307  0.50032354  0.46357397     0.18900
C2545       C  0.86358873  0.50626276  0.46627132    -0.09000
C2546       C  0.87269609  0.52851876  0.45677902    -0.01900
H2547       H  0.80285585  0.51264764  0.44983218     0.05500
C2548       C  0.82752736  0.47743817  0.47390674     0.20900
H2549       H  0.89230880  0.53257463  0.45880389     0.10600
C2550       C  0.82434674  0.45668631  0.45868251    -0.15300
C2551       C  0.80980575  0.43666109  0.46652282     0.03600
C2552       C  0.79850834  0.43714990  0.49007905    -0.10600
C2553       C  0.80343980  0.45717220  0.50588153    -0.00600
C2554       C  0.81736829  0.47733194  0.49784204    -0.05800
H2555       H  0.83187846  0.45674432  0.44010939     0.06600
H2556       H  0.79458758  0.45806732  0.52386467     0.10000
Br2557     Br  0.88619986  0.48456461  0.48292452    -0.05500
Br2558     Br  0.80739234  0.55989482  0.42577777    -0.02500
Br2559     Br  0.80339471  0.41072906  0.44329805     0.00400
Br2560     Br  0.81960305  0.50556311  0.51909655    -0.04000
C2561       C  0.84496939  0.69493258  0.42191781    -0.11400
C2562       C  0.82676285  0.69531943  0.44087030     0.04100
C2563       C  0.81642269  0.71779495  0.44862619    -0.11900
C2564       C  0.82369580  0.74015768  0.43788977     0.18900
C2565       C  0.84132096  0.73988737  0.41874002    -0.09000
C2566       C  0.85181775  0.71752668  0.41097666    -0.01900
H2567       H  0.80279623  0.71788133  0.46336294     0.05500
C2568       C  0.81266538  0.76344864  0.44725629     0.20900
H2569       H  0.86544639  0.71789426  0.39625969     0.10600
C2570       C  0.82496352  0.77677117  0.46587650    -0.15300
C2571       C  0.81305737  0.79638640  0.47806124     0.03600
C2572       C  0.78852883  0.80292618  0.47159484    -0.10600
C2573       C  0.77702200  0.79069371  0.45175450    -0.00600
C2574       C  0.78887745  0.77113306  0.43961710    -0.05800
H2575       H  0.84332984  0.77107214  0.47182183     0.06600
H2576       H  0.75802979  0.79525446  0.44684430     0.10000
Br2577     Br  0.85136112  0.76963511  0.40253619    -0.05500
Br2578     Br  0.81590151  0.66633510  0.45804652    -0.02500
Br2579     Br  0.82997714  0.81218830  0.50492435     0.00400
Br2580     Br  0.77125983  0.75432035  0.41381779    -0.04000
C2581       C  0.70786512  0.53346387  0.28366195    -0.11400
C2582       C  0.72204998  0.55194253  0.27198116     0.04100
C2583       C  0.74197499  0.56299490  0.28443099    -0.11900
C2584       C  0.74833977  0.55570577  0.30846626     0.18900
C2585       C  0.73339726  0.53827248  0.32071137    -0.09000
C2586       C  0.71327020  0.52736832  0.30833085    -0.01900
H2587       H  0.75324918  0.57650433  0.27492736     0.05500
C2588       C  0.77117567  0.56581599  0.32001010     0.20900
H2589       H  0.70312436  0.51266059  0.31728058     0.10600
C2590       C  0.76946219  0.58695844  0.33469000    -0.15300
C2591       C  0.79062095  0.59718773  0.34576333     0.03600
C2592       C  0.81431720  0.58609455  0.34230080    -0.10600
C2593       C  0.81595704  0.56513571  0.32704314    -0.00600
C2594       C  0.79467219  0.55497280  0.31602669    -0.05800
H2595       H  0.75149532  0.59562332  0.33748388     0.06600
H2596       H  0.83376807  0.55620114  0.32414967     0.10000
Br2597     Br  0.74118078  0.52731427  0.35351760    -0.05500
Br2598     Br  0.71634727  0.56089668  0.23814645    -0.02500
Br2599     Br  0.78557576  0.62694716  0.36439427     0.00400
Br2600     Br  0.79837892  0.52594977  0.29608576    -0.04000
C2601       C  0.43944782  0.51918945  0.71275567    -0.11400
C2602       C  0.45159815  0.50240015  0.69699006     0.04100
C2603       C  0.47185915  0.51013569  0.68267970    -0.11900
C2604       C  0.48060685  0.53442934  0.68424192     0.18900
C2605       C  0.46753835  0.55157069  0.69899738    -0.09000
C2606       C  0.44717401  0.54383984  0.71310466    -0.01900
H2607       H  0.48160745  0.49685104  0.67125600     0.05500
C2608       C  0.50386418  0.54122318  0.67113967     0.20900
H2609       H  0.43830766  0.55677082  0.72560921     0.10600
C2610       C  0.50439984  0.54111474  0.64522744    -0.15300
C2611       C  0.52580287  0.54822906  0.63222519     0.03600
C2612       C  0.54727119  0.55609259  0.64529962    -0.10600
C2613       C  0.54696229  0.55470607  0.67132347    -0.00600
C2614       C  0.52573236  0.54713870  0.68417422    -0.05800
H2615       H  0.48794897  0.53566247  0.63504006     0.06600
H2616       H  0.56314604  0.56007719  0.68194410     0.10000
Br2617     Br  0.47732807  0.58547571  0.70132412    -0.05500
Br2618     Br  0.44245859  0.46830824  0.69622097    -0.02500
Br2619     Br  0.52422937  0.54590981  0.59680229     0.00400
Br2620     Br  0.52782378  0.54463266  0.71954777    -0.04000
C2621       C  0.66166443  0.69071798  0.57836998    -0.11400
C2622       C  0.65652227  0.71378406  0.58977734     0.04100
C2623       C  0.66774433  0.73526725  0.58089122    -0.11900
C2624       C  0.68386480  0.73456230  0.56062687     0.18900
C2625       C  0.68897815  0.71186008  0.54911890    -0.09000
C2626       C  0.67807935  0.69022268  0.55808019    -0.01900
H2627       H  0.66389472  0.75270943  0.58989149     0.05500
C2628       C  0.69588562  0.75755810  0.55223492     0.20900
H2629       H  0.68215431  0.67299112  0.54879327     0.10600
C2630       C  0.71828711  0.76487353  0.56326450    -0.15300
C2631       C  0.73155023  0.78503552  0.55407245     0.03600
C2632       C  0.72235189  0.79828057  0.53362068    -0.10600
C2633       C  0.69918734  0.79184952  0.52355746    -0.00600
C2634       C  0.68590566  0.77166059  0.53277488    -0.05800
H2635       H  0.72592733  0.75430022  0.57844977     0.06600
H2636       H  0.69213964  0.80163504  0.50758101     0.10000
Br2637     Br  0.71058706  0.70967495  0.52094824    -0.05500
Br2638     Br  0.63509030  0.71782586  0.61799269    -0.02500
Br2639     Br  0.76286523  0.79303237  0.56904243     0.00400
Br2640     Br  0.65492405  0.76312205  0.51745399    -0.04000
C2641       C  0.64696432  0.54162961  0.55103702    -0.11400
C2642       C  0.66797021  0.54133689  0.53528358     0.04100
C2643       C  0.67692631  0.51889710  0.52600543    -0.11900
C2644       C  0.66530457  0.49653455  0.53194716     0.18900
C2645       C  0.64375062  0.49687349  0.54663744    -0.09000
C2646       C  0.63472586  0.51920875  0.55588395    -0.01900
H2647       H  0.69355705  0.51880959  0.51469246     0.05500
C2648       C  0.67774943  0.47314969  0.52506655     0.20900
H2649       H  0.61848516  0.51882145  0.56773952     0.10600
C2650       C  0.68840947  0.45882724  0.54390112    -0.15300
C2651       C  0.70472052  0.43953699  0.53826901     0.03600
C2652       C  0.71048928  0.43425300  0.51343121    -0.10600
C2653       C  0.69839757  0.44736295  0.49455259    -0.00600
C2654       C  0.68209039  0.46669591  0.50019616    -0.05800
H2655       H  0.68538220  0.46375260  0.56308577     0.06600
H2656       H  0.70291019  0.44358080  0.47539027     0.10000
Br2657     Br  0.62622703  0.46726283  0.55493125    -0.05500
Br2658     Br  0.68514915  0.57064322  0.52530931    -0.02500
Br2659     Br  0.72122718  0.42321370  0.56511960     0.00400
Br2660     Br  0.66721941  0.48456295  0.47341282    -0.04000
C2661       C  0.80320335  0.53421015  0.71426985    -0.11400
C2662       C  0.78758829  0.52171704  0.69746882     0.04100
C2663       C  0.76829832  0.53433319  0.68558314    -0.11900
C2664       C  0.76391796  0.55933675  0.69039738     0.18900
C2665       C  0.78005229  0.57210098  0.70642199    -0.09000
C2666       C  0.79964602  0.55954696  0.71809452    -0.01900
H2667       H  0.75602804  0.52436333  0.67324181     0.05500
C2668       C  0.74165395  0.57111418  0.67930258     0.20900
H2669       H  0.81111614  0.56922454  0.73138917     0.10600
C2670       C  0.71973971  0.57321217  0.69324504    -0.15300
C2671       C  0.69744016  0.58132437  0.68239501     0.03600
C2672       C  0.69665572  0.58689808  0.65677155    -0.10600
C2673       C  0.71913749  0.58586492  0.64330579    -0.00600
C2674       C  0.74139613  0.57822561  0.65436898    -0.05800
H2675       H  0.71991653  0.56815973  0.71261603     0.06600
H2676       H  0.71944676  0.59055302  0.62386152     0.10000
Br2677     Br  0.77524320  0.60630183  0.71374554    -0.05500
Br2678     Br  0.79090167  0.48701828  0.69142465    -0.02500
Br2679     Br  0.66934908  0.58512103  0.70406115     0.00400
Br2680     Br  0.77115006  0.57771914  0.63478283    -0.04000
C2681       C  0.52652155  0.71537356  0.43085804    -0.11400
C2682       C  0.50907360  0.69958322  0.44205077     0.04100
C2683       C  0.51644485  0.68405050  0.46137895    -0.11900
C2684       C  0.54104544  0.68426257  0.46999108     0.18900
C2685       C  0.55878631  0.69905633  0.45791917    -0.09000
C2686       C  0.55145454  0.71440882  0.43844335    -0.01900
H2687       H  0.50268418  0.67272669  0.47056353     0.05500
C2688       C  0.54734556  0.67087898  0.49297988     0.20900
H2689       H  0.56489820  0.72686265  0.43033819     0.10600
C2690       C  0.55490139  0.64624815  0.49183318    -0.15300
C2691       C  0.56228818  0.63358417  0.51321594     0.03600
C2692       C  0.56211446  0.64576224  0.53654122    -0.10600
C2693       C  0.55360484  0.67028748  0.53747535    -0.00600
C2694       C  0.54631775  0.68277700  0.51605926    -0.05800
H2695       H  0.55561116  0.63699217  0.47407076     0.06600
H2696       H  0.55313506  0.68012692  0.55491052     0.10000
Br2697     Br  0.59273386  0.70034652  0.46877529    -0.05500
Br2698     Br  0.47463962  0.70015387  0.43278212    -0.02500
Br2699     Br  0.57362182  0.60032900  0.50831407     0.00400
Br2700     Br  0.53570542  0.71640055  0.51906861    -0.04000
C2701       C  0.58057671  0.65749625  0.68507380    -0.11400
C2702       C  0.57061305  0.68166730  0.68577366     0.04100
C2703       C  0.56248114  0.69168512  0.70834204    -0.11900
C2704       C  0.56390643  0.67811116  0.73036948     0.18900
C2705       C  0.57314255  0.65398281  0.72969700    -0.09000
C2706       C  0.58133030  0.64392661  0.70734366    -0.01900
H2707       H  0.55513417  0.71024721  0.70877095     0.05500
C2708       C  0.55548478  0.68940945  0.75384093     0.20900
H2709       H  0.58847431  0.62529763  0.70757199     0.10600
C2710       C  0.53170273  0.68387917  0.76287354    -0.15300
C2711       C  0.52215019  0.69624898  0.78351476     0.03600
C2712       C  0.53659913  0.71418183  0.79568604    -0.10600
C2713       C  0.56089651  0.71876656  0.78742995    -0.00600
C2714       C  0.57037510  0.70653708  0.76660729    -0.05800
H2715       H  0.52013609  0.67071593  0.75317093     0.06600
H2716       H  0.57190226  0.73299311  0.79621793     0.10000
Br2717     Br  0.57556442  0.63426916  0.75902050    -0.05500
Br2718     Br  0.56800250  0.70247648  0.65720755    -0.02500
Br2719     Br  0.48838471  0.68988597  0.79310850     0.00400
Br2720     Br  0.60320374  0.71463681  0.75539143    -0.04000
loop_ 
_geom_bond_atom_site_label_1 
_geom_bond_atom_site_label_2 
_geom_bond_distance 
_geom_bond_site_symmetry_2 
_ccdc_geom_bond_type 
O1           C17   1.280       .  A
O1           Zn7   2.059       .  S
C2           O18   1.273       .  A
C2           O15   1.282       .  A
C2         C2621   1.492       .  S
O3           C16   1.272       .  A
O3          Cd10   2.062       .  S
O4           C22   1.281       .  A
O4          Cd13   2.105       .  S
O5           C19   1.279       .  A
O5           Cd9   2.094       .  S
O6           C17   1.275       .  A
O6           Cd9   2.051       .  S
Zn7          O18   2.004       .  S
Zn7          O20   2.040       .  S
Zn7          O12   1.923       .  S
O8           C19   1.278       .  A
O8          Cd13   2.080       .  S
Cd9          O11   2.087       .  S
Cd9          O12   1.975       .  S
Cd10         O14   2.073       .  S
Cd10         O23   2.053       .  S
Cd10         O12   1.966       .  S
O11          C21   1.280       .  A
O12         Cd13   1.984       .  S
Cd13         O15   2.101       .  S
O14          C21   1.276       .  A
C16          O20   1.279       .  A
C16        C2692   1.495       .  S
C17        C2701   1.495       .  S
C19        C2672   1.498       .  S
C21        C2612   1.495       .  S
C22          O23   1.276       .  A
C22        C2641   1.489       .  S
O24          C40   1.281       .  A
O24         Zn30   2.062       .  S
C25          O41   1.276       .  A
C25          O38   1.278       .  A
C25        C2492   1.487       .  S
O26          C39   1.274       .  A
O26         Cd33   2.062       .  S
O27          C45   1.280       .  A
O27         Cd36   2.096       .  S
O28          C42   1.280       .  A
O28         Cd32   2.101       .  S
O29          C40   1.274       .  A
O29         Cd32   2.061       .  S
Zn30         O41   2.013       .  S
Zn30         O43   2.049       .  S
Zn30         O35   1.936       .  S
O31          C42   1.276       .  A
O31         Cd36   2.071       .  S
Cd32         O34   2.090       .  S
Cd32         O35   1.979       .  S
Cd33         O37   2.070       .  S
Cd33         O46   2.075       .  S
Cd33         O35   1.971       .  S
O34          C44   1.279       .  A
O35         Cd36   1.984       .  S
Cd36         O38   2.085       .  S
O37          C44   1.277       .  A
C39          O43   1.280       .  A
C39        C2521   1.492       .  S
C40        C2592   1.492       .  S
C42        C2561   1.496       .  S
C44        C2541   1.492       .  S
C45          O46   1.275       .  A
C45        C2501   1.499       .  S
O47          C63   1.282       .  A
O47         Zn53   2.067       .  S
C48          O64   1.275       .  A
C48          O61   1.280       .  A
C48        C2452   1.485       .  S
O49          C62   1.276       .  A
O49         Cd56   2.061       .  S
O50          C68   1.280       .  A
O50         Cd59   2.093       .  S
O51          C65   1.276       .  A
O51         Cd55   2.078       .  S
O52          C63   1.272       .  A
O52         Cd55   2.051       .  S
Zn53         O64   2.014       .  S
Zn53         O66   2.048       .  S
Zn53         O58   1.936       .  S
O54          C65   1.280       .  A
O54         Cd59   2.084       .  S
Cd55         O57   2.082       .  S
Cd55         O58   1.977       .  S
Cd56         O60   2.079       .  S
Cd56         O69   2.073       .  S
Cd56         O58   1.973       .  S
O57          C67   1.276       .  A
O58         Cd59   1.989       .  S
Cd59         O61   2.102       .  S
O60          C67   1.278       .  A
C62          O66   1.279       .  A
C62        C2472   1.492       .  S
C63        C2401   1.487       .  S
C65        C2372   1.493       .  S
C67        C2392   1.496       .  S
C68          O69   1.275       .  A
C68        C2421   1.497       .  S
C70         C554   1.484       .  S
C70          C71   1.413       .  A
C70          C75   1.410       .  A
C71          C72   1.408       .  A
C71          H76   1.083       .  S
C72        C2441   1.477       .  S
C72          C73   1.394       .  A
C73          C74   1.394       .  A
C73          H77   1.087       .  S
C74        C2352   1.472   1_554  S
C74          C75   1.403       .  A
C75          H78   1.083   1_554  S
C79         C731   1.488       .  S
C79          C80   1.415       .  A
C79          C84   1.414       .  A
C80          C81   1.407       .  A
C80          H85   1.084       .  S
C81        C2532   1.479       .  S
C81          C82   1.394       .  A
C82          C83   1.394       .  A
C82          H86   1.086       .  S
C83        C2412   1.481       .  S
C83          C84   1.406       .  A
C84          H87   1.084       .  S
O88         C104   1.283       .  A
O88         Zn94   2.063       .  S
C89         O105   1.276       .  A
C89         O102   1.281       .  A
C89        C2241   1.493       .  S
O90         C103   1.274       .  A
O90         Cd97   2.047       .  S
O91         C109   1.280       .  A
O91        Cd100   2.098       .  S
O92         C106   1.276       .  A
O92         Cd96   2.077       .  S
O93         C104   1.271       .  A
O93         Cd96   2.050       .  S
Zn94        O105   2.031       .  S
Zn94        O107   2.062       .  S
Zn94         O99   1.930       .  S
O95         C106   1.275       .  A
O95        Cd100   2.058       .  S
Cd96         O98   2.080       .  S
Cd96         O99   1.978       .  S
Cd97        O101   2.058       .  S
Cd97        O110   2.053       .  S
Cd97         O99   1.964       .  S
O98         C108   1.275       .  A
O99        Cd100   1.986       .  S
Cd100       O102   2.092       .  S
O101        C108   1.274       .  A
C103        O107   1.281       .  A
C103       C2261   1.490       .  S
C104       C2332   1.496       .  S
C106       C2281   1.489       .  S
C108       C2301   1.493       .  S
C109        O110   1.274       .  A
C109       C2341   1.483       .  S
O111        C127   1.284       .  A
O111       Zn117   2.071       .  S
C112        O128   1.278       .  A
C112        O125   1.279       .  A
C112       C2201   1.493       .  S
O113        C126   1.276       .  A
O113       Cd120   2.073       .  S
O114        C132   1.281       .  A
O114       Cd123   2.102       .  S
O115        C129   1.281       .  A
O115       Cd119   2.112       .  S
O116        C127   1.275       .  A
O116       Cd119   2.066       .  S
Zn117       O128   2.017       .  S
Zn117       O130   2.060       .  S
Zn117       O122   1.922       .  S
O118        C129   1.275       .  A
O118       Cd123   2.051       .  S
Cd119       O121   2.095       .  S
Cd119       O122   1.982       .  S
Cd120       O124   2.052       .  S
Cd120       O133   2.062       .  S
Cd120       O122   1.958       .  S
O121        C131   1.279       .  A
O122       Cd123   1.969       .  S
Cd123       O125   2.086       .  S
O124        C131   1.277       .  A
C126        O130   1.280       .  A
C126       C2232   1.488       .  S
C127       C2161   1.494       .  S
C129       C2132   1.498       .  S
C131       C2141   1.492       .  S
C132        O133   1.273       .  A
C132       C2181   1.495       .  S
C134        C756   1.500       .  S
C134        C135   1.418       .  A
C134        C139   1.418       .  A
C135        C136   1.411       .  A
C135        H140   1.083       .  S
C136       C2272   1.483       .  S
C136        C137   1.393       .  A
C137        C138   1.392       .  A
C137        H141   1.087       .  S
C138       C2172   1.483       .  S
C138        C139   1.412       .  A
C139        H142   1.083       .  S
C143        C447   1.487       .  S
C143        C144   1.414       .  A
C143        C148   1.412       .  A
C144        C145   1.410       .  A
C144        H149   1.084       .  S
C145       C2221   1.485       .  S
C145        C146   1.398       .  A
C146        C147   1.396       .  A
C146        H150   1.086       .  S
C147       C2321   1.477       .  S
C147        C148   1.403       .  A
C148        H151   1.084       .  S
C152        C586   1.477       .  S
C152        C153   1.410       .  A
C152        C157   1.407   1_545  A
C153        C154   1.405       .  A
C153        H158   1.083       .  S
C154       C2212   1.476       .  S
C154        C155   1.398       .  A
C155        C156   1.396   1_545  A
C155        H159   1.086       .  S
C156       C2101   1.475       .  S
C156        C157   1.402       .  A
C157        H160   1.084       .  S
C161       C2072   1.477       .  S
C161        C162   1.394       .  A
C161        C166   1.406       .  A
C162        C163   1.395   1_565  A
C162        H167   1.087       .  S
C163       C2081   1.484       .  S
C163        C164   1.412       .  A
C164        C165   1.417   1_545  A
C164        H168   1.083       .  S
C165        C702   1.493       .  S
C165        C166   1.413       .  A
C166        H169   1.083       .  S
C170       C2152   1.474       .  S
C170        C171   1.405       .  A
C170        C175   1.390   1_556  A
C171        C172   1.413   1_556  A
C171        H176   1.083       .  S
C172        C738   1.482       .  S
C172        C173   1.412       .  A
C173        C174   1.406       .  A
C173        H177   1.083       .  S
C174       C2041   1.477       .  S
C174        C175   1.394       .  A
C175        H178   1.087       .  S
C179        C711   1.479       .  S
C179        C180   1.410   1_554  A
C179        C184   1.409       .  A
C180        C181   1.404       .  A
C180        H185   1.083       .  S
C181       C2121   1.475       .  S
C181        C182   1.396   1_556  A
C182        C183   1.394       .  A
C182        H186   1.087       .  S
C183       C2032   1.471       .  S
C183        C184   1.401       .  A
C184        H187   1.083       .  S
C188       C1992   1.476       .  S
C188        C189   1.395   1_565  A
C188        C193   1.404       .  A
C189        C190   1.395       .  A
C189        H194   1.086       .  S
C190       C2012   1.473       .  S
C190        C191   1.403       .  A
C191        C192   1.411       .  A
C191        H195   1.084       .  S
C192        C747   1.482       .  S
C192        C193   1.412   1_545  A
C193        H196   1.084       .  S
C197        C684   1.481       .  S
C197        C198   1.409       .  A
C197        C202   1.412       .  A
C198        C199   1.401       .  A
C198        H203   1.084       .  S
C199       C1961   1.470       .  S
C199        C200   1.396       .  A
C200        C201   1.395       .  A
C200        H204   1.086       .  S
C201       C2361   1.480       .  S
C201        C202   1.407       .  A
C202        H205   1.083   1_455  S
C206       C2381   1.480       .  S
C206        C207   1.391   1_655  A
C206        C211   1.412       .  A
C207        C208   1.391       .  A
C207        H212   1.087       .  S
C208       C1941   1.472       .  S
C208        C209   1.403       .  A
C209        C210   1.412       .  A
C209        H213   1.083       .  S
C210        C675   1.491       .  S
C210        C211   1.418   1_455  A
C211        H214   1.083       .  S
O215        C231   1.281       .  A
O215       Zn221   2.060       .  S
C216        O232   1.275       .  A
C216        O229   1.279       .  A
C216       C2021   1.487       .  S
O217        C230   1.269       .  A
O217       Cd224   2.036       .  S
O218        C236   1.280       .  A
O218       Cd227   2.104       .  S
O219        C233   1.280       .  A
O219       Cd223   2.097       .  S
O220        C231   1.276       .  A
O220       Cd223   2.055       .  S
Zn221       O232   2.000       .  S
Zn221       O234   2.057       .  S
Zn221       O226   1.918       .  S
O222        C233   1.274       .  A
O222       Cd227   2.054       .  S
Cd223       O225   2.094       .  S
Cd223       O226   1.977       .  S
Cd224       O228   2.037       .  S
Cd224       O237   2.038       .  S
Cd224       O226   1.946       .  S
O225        C235   1.279       .  A
O226       Cd227   1.976       .  S
Cd227       O229   2.090       .  S
O228        C235   1.271       .  A
C230        O234   1.280       .  A
C230       C2001   1.487       .  S
C231       C2092   1.497       .  S
C233       C1972   1.476       .  S
C235       C1952   1.476       .  S
C236        O237   1.273       .  A
C236       C2052   1.482       .  S
O238        C254   1.283       .  A
O238       Zn244   2.071       .  S
C239        O255   1.277       .  A
C239        O252   1.278       .  A
C239       C2112   1.487       .  S
O240        C253   1.275       .  A
O240       Cd247   2.057       .  S
O241        C259   1.281       .  A
O241       Cd250   2.102       .  S
O242        C256   1.282       .  A
O242       Cd246   2.108       .  S
O243        C254   1.277       .  A
O243       Cd246   2.069       .  S
Zn244       O255   2.023       .  S
Zn244       O257   2.063       .  S
Zn244       O249   1.927       .  S
O245        C256   1.272       .  A
O245       Cd250   2.048       .  S
Cd246       O248   2.106       .  S
Cd246       O249   1.980       .  S
Cd247       O251   2.062       .  S
Cd247       O260   2.059       .  S
Cd247       O249   1.965       .  S
O248        C258   1.281       .  A
O249       Cd250   1.977       .  S
Cd250       O252   2.082       .  S
O251        C258   1.276       .  A
C253        O257   1.281       .  A
C253       C1901   1.493       .  S
C254       C1881   1.492       .  S
C256       C1872   1.476       .  S
C258       C1921   1.496       .  S
C259        O260   1.273       .  A
C259       C1852   1.493       .  S
O261        C277   1.284       .  A
O261       Zn267   2.073       .  S
C262        O278   1.279       .  A
C262        O275   1.280       .  A
C262       C1772   1.496       .  S
O263        C276   1.275       .  A
O263       Cd270   2.064       .  S
O264        C282   1.281       .  A
O264       Cd273   2.101       .  S
O265        C279   1.279       .  A
O265       Cd269   2.089       .  S
O266        C277   1.271       .  A
O266       Cd269   2.039       .  S
Zn267       O278   2.020       .  S
Zn267       O280   2.057       .  S
Zn267       O272   1.921       .  S
O268        C279   1.276       .  A
O268       Cd273   2.069       .  S
Cd269       O271   2.088       .  S
Cd269       O272   1.963       .  S
Cd270       O274   2.077       .  S
Cd270       O283   2.053       .  S
Cd270       O272   1.951       .  S
O271        C281   1.279       .  A
O272       Cd273   1.978       .  S
Cd273       O275   2.093       .  S
O274        C281   1.277       .  A
C276        O280   1.280       .  A
C276       C1981   1.475       .  S
C277       C2061   1.489       .  S
C279       C1781   1.486       .  S
C281       C1812   1.494       .  S
C282        O283   1.274       .  A
C282       C1821   1.488       .  S
C284        C639   1.487       .  S
C284        C285   1.413       .  A
C284        C289   1.415       .  A
C285        C286   1.408       .  A
C285        H290   1.083       .  S
C286       C1792   1.482       .  S
C286        C287   1.395       .  A
C287        C288   1.393       .  A
C287        H291   1.086       .  S
C288       C2512   1.480   1_455  S
C288        C289   1.407       .  A
C289        H292   1.084   1_455  S
C293        C765   1.484       .  S
C293        C294   1.411       .  A
C293        C298   1.413       .  A
C294        C295   1.401       .  A
C294        H299   1.084       .  S
C295       C1861   1.474       .  S
C295        C296   1.394       .  A
C296        C297   1.394       .  A
C296        H300   1.086       .  S
C297       C1761   1.475       .  S
C297        C298   1.407       .  A
C298        H301   1.083       .  S
C302       C1932   1.479       .  S
C302        C303   1.396       .  A
C302        C307   1.406       .  A
C303        C304   1.397       .  A
C303        H308   1.086       .  S
C304       C1832   1.475       .  S
C304        C305   1.403       .  A
C305        C306   1.411       .  A
C305        H309   1.084       .  S
C306        C522   1.481       .  S
C306        C307   1.411       .  A
C307        H310   1.083       .  S
C311        C776   1.486       .  S
C311        C312   1.417       .  A
C311        C316   1.409   1_455  A
C312        C313   1.413       .  A
C312        H317   1.083       .  S
C313       C1801   1.484       .  S
C313        C314   1.397       .  A
C314        C315   1.395   1_455  A
C314        H318   1.086       .  S
C315       C2481   1.473       .  S
C315        C316   1.401       .  A
C316        H319   1.084       .  S
C320        C794   1.483       .  S
C320        C321   1.411   1_565  A
C320        C325   1.413       .  A
C321        C322   1.403       .  A
C321        H326   1.084       .  S
C322       C2192   1.478       .  S
C322        C323   1.396   1_545  A
C323        C324   1.399       .  A
C323        H327   1.086       .  S
C324       C1841   1.485       .  S
C324        C325   1.408       .  A
C325        H328   1.084       .  S
C329        C783   1.491       .  S
C329        C330   1.416   1_556  A
C329        C334   1.413       .  A
C330        C331   1.409       .  A
C330        H335   1.083       .  S
C331       C2432   1.482       .  S
C331        C332   1.396   1_554  A
C332        C333   1.394       .  A
C332        H336   1.086       .  S
C333       C2252   1.478       .  S
C333        C334   1.407       .  A
C334        H337   1.083       .  S
C338       C2712   1.475       .  S
C338        C339   1.405       .  A
C338        C343   1.393       .  A
C339        C340   1.413       .  A
C339        H344   1.083       .  S
C340        C490   1.484       .  S
C340        C341   1.413       .  A
C341        C342   1.405       .  A
C341        H345   1.083       .  S
C342       C1912   1.477       .  S
C342        C343   1.395       .  A
C343        H346   1.086       .  S
C347        C695   1.489       .  S
C347        C348   1.412       .  A
C347        C352   1.415       .  A
C348        C349   1.404       .  A
C348        H353   1.084       .  S
C349       C2681   1.477       .  S
C349        C350   1.395       .  A
C350        C351   1.396       .  A
C350        H354   1.087       .  S
C351       C1892   1.482       .  S
C351        C352   1.410       .  A
C352        H355   1.083       .  S
C356        C666   1.489       .  S
C356        C357   1.412       .  A
C356        C361   1.416       .  A
C357        C358   1.405       .  A
C357        H362   1.084       .  S
C358       C2632   1.477       .  S
C358        C359   1.395       .  A
C359        C360   1.396       .  A
C359        H363   1.086       .  S
C360       C2572   1.483       .  S
C360        C361   1.410       .  A
C361        H364   1.083       .  S
C365       C2601   1.475       .  S
C365        C366   1.392       .  A
C365        C370   1.405       .  A
C366        C367   1.395       .  A
C366        H371   1.086       .  S
C367       C2312   1.479       .  S
C367        C368   1.407       .  A
C368        C369   1.415       .  A
C368        H372   1.084       .  S
C369        C661   1.488       .  S
C369        C370   1.413       .  A
C370        H373   1.084       .  S
C374       C2661   1.480       .  S
C374        C375   1.394       .  A
C374        C379   1.408       .  A
C375        C376   1.393       .  A
C375        H380   1.086       .  S
C376       C2292   1.473       .  S
C376        C377   1.404       .  A
C377        C378   1.412       .  A
C377        H381   1.083       .  S
C378        C650   1.489       .  S
C378        C379   1.415       .  A
C379        H382   1.084       .  S
C383        C724   1.489       .  S
C383        C384   1.417       .  A
C383        C388   1.411       .  A
C384        C385   1.413       .  A
C384        H389   1.083       .  S
C385       C2552   1.488       .  S
C385        C386   1.399       .  A
C386        C387   1.392       .  A
C386        H390   1.086       .  S
C387       C2652   1.475       .  S
C387        C388   1.399       .  A
C388        H391   1.084       .  S
C392       C2581   1.482       .  S
C392        C393   1.408       .  A
C392        C397   1.392       .  A
C393        C394   1.416       .  A
C393        H398   1.083       .  S
C394        C483   1.493       .  S
C394        C395   1.417       .  A
C395        C396   1.413       .  A
C395        H399   1.083       .  S
C396       C2461   1.495       .  S
C396        C397   1.398       .  A
C397        H400   1.085       .  S
O401        C417   1.278       .  A
O401       Zn407   2.038       .  S
C402        O418   1.281       .  A
C402        O415   1.275       .  A
C402       C1701   1.488       .  S
O403        C416   1.276       .  A
O403       Cd410   2.062       .  S
O404        C422   1.278       .  A
O404       Cd413   2.087       .  S
O405        C419   1.275       .  A
O405       Cd409   2.055       .  S
O406        C417   1.275       .  A
O406       Cd409   2.070       .  S
Zn407       O418   2.060       .  S
Zn407       O420   2.034       .  S
Zn407       O412   1.929       .  S
O408        C419   1.279       .  A
O408       Cd413   2.090       .  S
Cd409       O411   2.084       .  S
Cd409       O412   1.974       .  S
Cd410       O414   2.081       .  S
Cd410       O423   2.067       .  S
Cd410       O412   1.967       .  S
O411        C421   1.276       .  A
O412       Cd413   1.976       .  S
Cd413       O415   2.063       .  S
O414        C421   1.278       .  A
C416        O420   1.280       .  A
C416       C1752   1.486       .  S
C417       C1672   1.495       .  S
C419       C1732   1.488       .  S
C421       C1681   1.488       .  S
C422        O423   1.276       .  A
C422       C1641   1.488       .  S
O424        C440   1.277       .  A
O424       Zn430   2.044       .  S
C425        O441   1.286       .  A
C425        O438   1.275       .  A
C425       C1552   1.501       .  S
O426        C439   1.275       .  A
O426       Cd433   2.041       .  S
O427        C445   1.282       .  A
O427       Cd436   2.110       .  S
O428        C442   1.272       .  A
O428       Cd432   2.043       .  S
O429        C440   1.282       .  A
O429       Cd432   2.102       .  S
Zn430       O441   2.074       .  S
Zn430       O443   2.053       .  S
Zn430       O435   1.924       .  S
O431        C442   1.283       .  A
O431       Cd436   2.098       .  S
Cd432       O434   2.092       .  S
Cd432       O435   1.977       .  S
Cd433       O437   2.059       .  S
Cd433       O446   2.061       .  S
Cd433       O435   1.954       .  S
O434        C444   1.277       .  A
O435       Cd436   1.979       .  S
Cd436       O438   2.068       .  S
O437        C444   1.275       .  A
C439        O443   1.281       .  A
C439       C1532   1.483       .  S
C440       C1592   1.503       .  S
C442       C1561   1.489       .  S
C444       C1601   1.495       .  S
C445        O446   1.273       .  A
C445       C1621   1.499       .  S
C447        C448   1.410       .  A
C447        C452   1.416       .  A
C448        C449   1.401       .  A
C448        H453   1.084       .  S
C449       C1501   1.473       .  S
C449        C450   1.394       .  A
C450        C451   1.396       .  A
C450        H454   1.086       .  S
C451       C1612   1.483       .  S
C451        C452   1.411       .  A
C452        H455   1.084       .  S
O456        C472   1.272       .  A
O456       Zn462   1.993       .  S
C457        O473   1.279       .  A
C457        O470   1.277       .  A
C457       C1461   1.484       .  S
O458        C471   1.277       .  A
O458       Cd465   2.075       .  S
O459        C477   1.279       .  A
O459       Cd468   2.090       .  S
O460        C474   1.277       .  A
O460       Cd464   2.064       .  S
O461        C472   1.282       .  A
O461       Cd464   2.105       .  S
Zn462       O473   2.040       .  S
Zn462       O475   2.030       .  S
Zn462       O467   1.909       .  S
O463        C474   1.279       .  A
O463       Cd468   2.095       .  S
Cd464       O466   2.099       .  S
Cd464       O467   1.980       .  S
Cd465       O469   2.060       .  S
Cd465       O478   2.060       .  S
Cd465       O467   1.962       .  S
O466        C476   1.280       .  A
O467       Cd468   1.973       .  S
Cd468       O470   2.079       .  S
O469        C476   1.275       .  A
C471        O475   1.276       .  A
C471       C1421   1.492       .  S
C472       C1481   1.491       .  S
C474       C1441   1.496       .  S
C476       C1512   1.486       .  S
C477        O478   1.277       .  A
C477       C1412   1.487       .  S
C479       C1432   1.480       .  S
C479        C480   1.396       .  A
C479        C484   1.408       .  A
C480        C481   1.395       .  A
C480        H485   1.086       .  S
C481       C1381   1.488       .  S
C481        C482   1.413       .  A
C482        C483   1.418       .  A
C482        H486   1.083       .  S
C483        C484   1.413       .  A
C484        H487   1.084       .  S
C488       C1372   1.478       .  S
C488        C489   1.407       .  A
C488        C493   1.396       .  A
C489        C490   1.413       .  A
C489        H494   1.083       .  S
C490        C491   1.410       .  A
C491        C492   1.403       .  A
C491        H495   1.084       .  S
C492       C1352   1.474       .  S
C492        C493   1.395       .  A
C493        H496   1.086       .  S
O497        C513   1.276       .  A
O497       Zn503   2.020       .  S
C498        O514   1.281       .  A
C498        O511   1.277       .  A
C498       C1392   1.488       .  S
O499        C512   1.274       .  A
O499       Cd506   2.065       .  S
O500        C518   1.282       .  A
O500       Cd509   2.106       .  S
O501        C515   1.274       .  A
O501       Cd505   2.055       .  S
O502        C513   1.276       .  A
O502       Cd505   2.074       .  S
Zn503       O514   2.060       .  S
Zn503       O516   2.045       .  S
Zn503       O508   1.932       .  S
O504        C515   1.282       .  A
O504       Cd509   2.108       .  S
Cd505       O507   2.079       .  S
Cd505       O508   1.984       .  S
Cd506       O510   2.071       .  S
Cd506       O519   2.060       .  S
Cd506       O508   1.974       .  S
O507        C517   1.276       .  A
O508       Cd509   1.990       .  S
Cd509       O511   2.080       .  S
O510        C517   1.275       .  A
C512        O516   1.279       .  A
C512       C1272   1.491       .  S
C513       C1292   1.479       .  S
C515       C1361   1.483       .  S
C517       C1301   1.483       .  S
C518        O519   1.274       .  A
C518       C1321   1.493       .  S
C520       C1401   1.478       .  S
C520        C521   1.406       .  A
C520        C525   1.397       .  A
C521        C522   1.411       .  A
C521        H526   1.084       .  S
C522        C523   1.411       .  A
C523        C524   1.403       .  A
C523        H527   1.084       .  S
C524       C1652   1.475       .  S
C524        C525   1.395       .  A
C525        H528   1.086       .  S
O529        C545   1.276       .  A
O529       Zn535   2.015       .  S
C530        O546   1.282       .  A
C530        O543   1.275       .  A
C530       C1341   1.485       .  S
O531        C544   1.269       .  A
O531       Cd538   2.036       .  S
O532        C550   1.281       .  A
O532       Cd541   2.108       .  S
O533        C547   1.276       .  A
O533       Cd537   2.069       .  S
O534        C545   1.280       .  A
O534       Cd537   2.085       .  S
Zn535       O546   2.055       .  S
Zn535       O548   2.066       .  S
Zn535       O540   1.935       .  S
O536        C547   1.285       .  A
O536       Cd541   2.122       .  S
Cd537       O539   2.094       .  S
Cd537       O540   1.970       .  S
Cd538       O542   2.043       .  S
Cd538       O551   2.038       .  S
Cd538       O540   1.948       .  S
O539        C549   1.279       .  A
O540       Cd541   1.983       .  S
Cd541       O543   2.055       .  S
O542        C549   1.271       .  A
C544        O548   1.280       .  A
C544       C1221   1.487       .  S
C545       C1161   1.477       .  S
C547       C1201   1.500       .  S
C549       C1181   1.487       .  S
C550        O551   1.272       .  A
C550       C1241   1.482       .  S
C552       C1252   1.473       .  S
C552        C553   1.404       .  A
C552        C557   1.393       .  A
C553        C554   1.413       .  A
C553        H558   1.083       .  S
C554        C555   1.412   1_554  A
C555        C556   1.405       .  A
C555        H559   1.083       .  S
C556       C1152   1.473       .  S
C556        C557   1.394   1_556  A
C557        H560   1.087       .  S
O561        C577   1.277       .  A
O561       Zn567   2.017       .  S
C562        O578   1.281       .  A
C562        O575   1.273       .  A
C562       C1121   1.485       .  S
O563        C576   1.274       .  A
O563       Cd570   2.051       .  S
O564        C582   1.281       .  A
O564       Cd573   2.096       .  S
O565        C579   1.275       .  A
O565       Cd569   2.072       .  S
O566        C577   1.280       .  A
O566       Cd569   2.098       .  S
Zn567       O578   2.058       .  S
Zn567       O580   2.051       .  S
Zn567       O572   1.921       .  S
O568        C579   1.281       .  A
O568       Cd573   2.091       .  S
Cd569       O571   2.103       .  S
Cd569       O572   1.974       .  S
Cd570       O574   2.057       .  S
Cd570       O583   2.058       .  S
Cd570       O572   1.958       .  S
O571        C581   1.280       .  A
O572       Cd573   1.978       .  S
Cd573       O575   2.050       .  S
O574        C581   1.276       .  A
C576        O580   1.278       .  A
C576       C1072   1.496       .  S
C577       C1021   1.498       .  S
C579       C1092   1.493       .  S
C581       C1041   1.496       .  S
C582        O583   1.273       .  A
C582       C1112   1.497       .  S
C584       C1012   1.471       .  S
C584        C585   1.404       .  A
C584        C589   1.395   1_565  A
C585        C586   1.409   1_565  A
C585        H590   1.083       .  S
C586        C587   1.410       .  A
C587        C588   1.403       .  A
C587        H591   1.083       .  S
C588       C1132   1.474       .  S
C588        C589   1.395       .  A
C589        H592   1.086       .  S
O593        C609   1.274       .  A
O593       Zn599   2.010       .  S
C594        O610   1.279       .  A
C594        O607   1.276       .  A
C594        C921   1.479       .  S
O595        C608   1.272       .  A
O595       Cd602   2.045       .  S
O596        C614   1.278       .  A
O596       Cd605   2.098       .  S
O597        C611   1.275       .  A
O597       Cd601   2.066       .  S
O598        C609   1.279       .  A
O598       Cd601   2.093       .  S
Zn599       O610   2.035       .  S
Zn599       O612   2.047       .  S
Zn599       O604   1.911       .  S
O600        C611   1.279       .  A
O600       Cd605   2.085       .  S
Cd601       O603   2.085       .  S
Cd601       O604   1.985       .  S
Cd602       O606   2.042       .  S
Cd602       O615   2.066       .  S
Cd602       O604   1.958       .  S
O603        C613   1.279       .  A
O604       Cd605   1.974       .  S
Cd605       O607   2.060       .  S
O606        C613   1.272       .  A
C608        O612   1.279       .  A
C608       C1001   1.476       .  S
C609        C941   1.477       .  S
C611        C961   1.475       .  S
C613       C1141   1.479       .  S
C614        O615   1.276       .  A
C614        C981   1.500       .  S
O616        C632   1.275       .  A
O616       Zn622   2.004       .  S
C617        O633   1.284       .  A
C617        O630   1.272       .  A
C617        C861   1.497       .  S
O618        C631   1.273       .  A
O618       Cd625   2.041       .  S
O619        C637   1.281       .  A
O619       Cd628   2.093       .  S
O620        C634   1.277       .  A
O620       Cd624   2.062       .  S
O621        C632   1.279       .  A
O621       Cd624   2.093       .  S
Zn622       O633   2.066       .  S
Zn622       O635   2.057       .  S
Zn622       O627   1.915       .  S
O623        C634   1.278       .  A
O623       Cd628   2.086       .  S
Cd624       O626   2.100       .  S
Cd624       O627   1.973       .  S
Cd625       O629   2.053       .  S
Cd625       O638   2.054       .  S
Cd625       O627   1.950       .  S
O626        C636   1.280       .  A
O627       Cd628   1.966       .  S
Cd628       O630   2.054       .  S
O629        C636   1.275       .  A
C631        O635   1.280       .  A
C631        C881   1.494       .  S
C632        C912   1.491       .  S
C634        C801   1.493       .  S
C636        C841   1.484       .  S
C637        O638   1.272       .  A
C637        C821   1.493       .  S
C639        C640   1.410       .  A
C639        C644   1.416   1_455  A
C640        C641   1.403       .  A
C640        H645   1.083       .  S
C641        C901   1.474       .  S
C641        C642   1.396       .  A
C642        C643   1.396   1_455  A
C642        H646   1.086       .  S
C643        C992   1.482       .  S
C643        C644   1.410       .  A
C644        H647   1.083       .  S
C648        C892   1.482       .  S
C648        C649   1.407       .  A
C648        C653   1.397       .  A
C649        C650   1.415       .  A
C649        H654   1.084       .  S
C650        C651   1.412       .  A
C651        C652   1.404       .  A
C651        H655   1.083       .  S
C652       C1741   1.476       .  S
C652        C653   1.393       .  A
C653        H656   1.086       .  S
C657       C1712   1.479       .  S
C657        C658   1.396       .  A
C657        C662   1.408       .  A
C658        C659   1.396       .  A
C658        H663   1.086       .  S
C659        C872   1.475       .  S
C659        C660   1.404       .  A
C660        C661   1.411       .  A
C660        H664   1.084       .  S
C661        C662   1.414       .  A
C662        H665   1.084       .  S
C666        C667   1.416       .  A
C666        C671   1.413       .  A
C667        C668   1.409       .  A
C667        H672   1.083       .  S
C668       C1632   1.479       .  S
C668        C669   1.394       .  A
C669        C670   1.393       .  A
C669        H673   1.086       .  S
C670       C1101   1.476       .  S
C670        C671   1.407       .  A
C671        H674   1.083       .  S
C675        C676   1.415       .  A
C675        C680   1.413       .  A
C676        C677   1.406       .  A
C676        H681   1.084   1_455  S
C677       C1052   1.480   1_455  S
C677        C678   1.396       .  A
C678        C679   1.396       .  A
C678        H682   1.086       .  S
C679       C1692   1.479       .  S
C679        C680   1.408       .  A
C680        H683   1.084       .  S
C684        C685   1.410   1_455  A
C684        C689   1.410       .  A
C685        C686   1.402       .  A
C685        H690   1.083       .  S
C686       C1032   1.475       .  S
C686        C687   1.397   1_655  A
C687        C688   1.398       .  A
C687        H691   1.085   1_455  S
C688       C1661   1.479       .  S
C688        C689   1.405       .  A
C689        H692   1.084       .  S
C693       C1332   1.478       .  S
C693        C694   1.404       .  A
C693        C698   1.392       .  A
C694        C695   1.413       .  A
C694        H699   1.083       .  S
C695        C696   1.415       .  A
C696        C697   1.410       .  A
C696        H700   1.083       .  S
C697       C1232   1.484       .  S
C697        C698   1.398       .  A
C698        H701   1.087       .  S
C702        C703   1.414       .  A
C702        C707   1.417   1_565  A
C703        C704   1.408       .  A
C703        H708   1.083       .  S
C704       C1192   1.479       .  S
C704        C705   1.394       .  A
C705        C706   1.396   1_565  A
C705        H709   1.086       .  S
C706       C1541   1.486       .  S
C706        C707   1.410       .  A
C707        H710   1.083       .  S
C711        C712   1.409   1_554  A
C711        C716   1.410       .  A
C712        C713   1.402       .  A
C712        H717   1.084       .  S
C713        C812   1.474       .  S
C713        C714   1.395   1_556  A
C714        C715   1.395       .  A
C714        H718   1.086       .  S
C715       C1312   1.472       .  S
C715        C716   1.404       .  A
C716        H719   1.083       .  S
C720       C1572   1.471       .  S
C720        C721   1.393       .  A
C720        C725   1.399       .  A
C721        C722   1.396       .  A
C721        H726   1.086       .  S
C722       C1081   1.480       .  S
C722        C723   1.412       .  A
C723        C724   1.415       .  A
C723        H727   1.084       .  S
C724        C725   1.411       .  A
C725        H728   1.084       .  S
C729       C1472   1.479       .  S
C729        C730   1.408       .  A
C729        C734   1.394       .  A
C730        C731   1.415       .  A
C730        H735   1.083       .  S
C731        C732   1.413       .  A
C732        C733   1.406       .  A
C732        H736   1.084       .  S
C733       C1261   1.478       .  S
C733        C734   1.394       .  A
C734        H737   1.086       .  S
C738        C739   1.410       .  A
C738        C743   1.413   1_554  A
C739        C740   1.404       .  A
C739        H744   1.084       .  S
C740       C1281   1.475       .  S
C740        C741   1.395       .  A
C741        C742   1.395   1_554  A
C741        H745   1.086   1_554  S
C742        C832   1.477       .  S
C742        C743   1.407       .  A
C743        H746   1.083       .  S
C747        C748   1.411       .  A
C747        C752   1.410   1_545  A
C748        C749   1.404       .  A
C748        H753   1.084       .  S
C749       C1521   1.475       .  S
C749        C750   1.396       .  A
C750        C751   1.394   1_545  A
C750        H754   1.086       .  S
C751       C1172   1.474       .  S
C751        C752   1.404       .  A
C752        H755   1.083       .  S
C756        C757   1.419       .  A
C756        C761   1.415       .  A
C757        C758   1.413       .  A
C757        H762   1.083       .  S
C758       C1581   1.487       .  S
C758        C759   1.396       .  A
C759        C760   1.396       .  A
C759        H763   1.087       .  S
C760       C1492   1.481       .  S
C760        C761   1.408       .  A
C761        H764   1.084       .  S
C765        C766   1.413       .  A
C765        C770   1.410       .  A
C766        C767   1.409       .  A
C766        H771   1.083       .  S
C767       C1721   1.477       .  S
C767        C768   1.395       .  A
C768        C769   1.394       .  A
C768        H772   1.086       .  S
C769       C1452   1.472       .  S
C769        C770   1.400       .  A
C770        H773   1.083       .  S
C774        C972   1.478       .  S
C774        C775   1.408       .  A
C774        C779   1.394       .  A
C775        C776   1.414   1_655  A
C775        H780   1.084       .  S
C776        C777   1.413       .  A
C777        C778   1.406       .  A
C777        H781   1.084       .  S
C778        C852   1.479       .  S
C778        C779   1.394   1_455  A
C779        H782   1.086       .  S
C783        C784   1.418       .  A
C783        C788   1.412       .  A
C784        C785   1.411       .  A
C784        H789   1.082   1_556  S
C785       C1212   1.483   1_556  S
C785        C786   1.393       .  A
C786        C787   1.395       .  A
C786        H790   1.087       .  S
C787        C952   1.477       .  S
C787        C788   1.405       .  A
C788        H791   1.084       .  S
C792        C932   1.479       .  S
C792        C793   1.405       .  A
C792        C797   1.396       .  A
C793        C794   1.412       .  A
C793        H798   1.084       .  S
C794        C795   1.411   1_565  A
C795        C796   1.405       .  A
C795        H799   1.084       .  S
C796       C1061   1.475       .  S
C796        C797   1.396   1_545  A
C797        H800   1.086       .  S
C801        C802   1.419       .  A
C801        C806   1.413       .  A
C802        C803   1.400       .  A
C802       Br818   1.922       .  S
C803        C804   1.401       .  A
C803        H807   1.085       .  S
C804        C808   1.476       .  S
C804        C805   1.401       .  A
C805        C806   1.397       .  A
C805       Br817   1.918       .  S
C806        H809   1.084       .  S
C808        C810   1.403       .  A
C808        C814   1.407       .  A
C810        C811   1.400       .  A
C810        H815   1.083       .  S
C811        C812   1.408       .  A
C811       Br819   1.918       .  S
C812        C813   1.404       .  A
C813        C814   1.397       .  A
C813        H816   1.083   1_556  S
C814       Br820   1.919   1_556  S
C821        C822   1.422       .  A
C821        C826   1.408       .  A
C822        C823   1.402       .  A
C822       Br838   1.923       .  S
C823        C824   1.400       .  A
C823        H827   1.084       .  S
C824        C828   1.483       .  S
C824        C825   1.408       .  A
C825        C826   1.398       .  A
C825       Br837   1.919       .  S
C826        H829   1.084       .  S
C828        C830   1.405       .  A
C828        C834   1.408       .  A
C830        C831   1.402       .  A
C830        H835   1.083       .  S
C831        C832   1.408       .  A
C831       Br839   1.918       .  S
C832        C833   1.403       .  A
C833        C834   1.399       .  A
C833        H836   1.083   1_556  S
C834       Br840   1.919   1_556  S
C841        C842   1.412       .  A
C841        C846   1.408       .  A
C842        C843   1.402       .  A
C842       Br858   1.920       .  S
C843        C844   1.404   1_556  A
C843        H847   1.084       .  S
C844        C848   1.479       .  S
C844        C845   1.404       .  A
C845        C846   1.398   1_554  A
C845       Br857   1.918       .  S
C846        H849   1.084       .  S
C848        C850   1.405       .  A
C848        C854   1.407       .  A
C850        C851   1.404       .  A
C850        H855   1.084       .  S
C851        C852   1.409       .  A
C851       Br859   1.917   1_455  S
C852        C853   1.404       .  A
C853        C854   1.396       .  A
C853        H856   1.084       .  S
C854       Br860   1.921       .  S
C861        C862   1.425       .  A
C861        C866   1.408       .  A
C862        C863   1.400       .  A
C862       Br878   1.925       .  S
C863        C864   1.397       .  A
C863        H867   1.085       .  S
C864        C868   1.481       .  S
C864        C865   1.408       .  A
C865        C866   1.401       .  A
C865       Br877   1.919       .  S
C866        H869   1.084       .  S
C868        C870   1.403       .  A
C868        C874   1.408       .  A
C870        C871   1.399       .  A
C870        H875   1.084       .  S
C871        C872   1.407       .  A
C871       Br879   1.918       .  S
C872        C873   1.404       .  A
C873        C874   1.402       .  A
C873        H876   1.084       .  S
C874       Br880   1.917       .  S
C881        C882   1.418       .  A
C881        C886   1.414       .  A
C882        C883   1.400       .  A
C882       Br898   1.922       .  S
C883        C884   1.401       .  A
C883        H887   1.084       .  S
C884        C888   1.479   1_455  S
C884        C885   1.402       .  A
C885        C886   1.400       .  A
C885       Br897   1.918   1_455  S
C886        H889   1.083       .  S
C888        C890   1.400       .  A
C888        C894   1.410       .  A
C890        C891   1.397       .  A
C890        H895   1.083       .  S
C891        C892   1.413       .  A
C891       Br899   1.921       .  S
C892        C893   1.403       .  A
C893        C894   1.403       .  A
C893        H896   1.083       .  S
C894       Br900   1.918       .  S
C901        C902   1.409       .  A
C901        C906   1.402       .  A
C902        C903   1.401       .  A
C902       Br918   1.918       .  S
C903        C904   1.402       .  A
C903        H907   1.083       .  S
C904        C908   1.477       .  S
C904        C905   1.407       .  A
C905        C906   1.398       .  A
C905       Br917   1.918       .  S
C906        H909   1.083       .  S
C908        C910   1.401       .  A
C908        C914   1.402       .  A
C910        C911   1.400       .  A
C910        H915   1.084       .  S
C911        C912   1.416       .  A
C911       Br919   1.921       .  S
C912        C913   1.413       .  A
C913        C914   1.399       .  A
C913        H916   1.084       .  S
C914       Br920   1.918       .  S
C921        C922   1.413       .  A
C921        C926   1.407       .  A
C922        C923   1.398       .  A
C922       Br938   1.921       .  S
C923        C924   1.401   1_655  A
C923        H927   1.085       .  S
C924        C928   1.477       .  S
C924        C925   1.405       .  A
C925        C926   1.399   1_455  A
C925       Br937   1.917       .  S
C926        H929   1.085       .  S
C928        C930   1.400       .  A
C928        C934   1.409       .  A
C930        C931   1.399       .  A
C930        H935   1.083   1_565  S
C931        C932   1.411       .  A
C931       Br939   1.919   1_565  S
C932        C933   1.403       .  A
C933        C934   1.401       .  A
C933        H936   1.083       .  S
C934       Br940   1.919       .  S
C941        C942   1.413       .  A
C941        C946   1.403       .  A
C942        C943   1.400   1_565  A
C942       Br958   1.920       .  S
C943        C944   1.399       .  A
C943        H947   1.084       .  S
C944        C948   1.477       .  S
C944        C945   1.410   1_545  A
C945        C946   1.401       .  A
C945       Br957   1.920       .  S
C946        H949   1.084       .  S
C948        C950   1.404       .  A
C948        C954   1.405       .  A
C950        C951   1.401       .  A
C950        H955   1.083       .  S
C951        C952   1.407       .  A
C951       Br959   1.917       .  S
C952        C953   1.406       .  A
C953        C954   1.398       .  A
C953        H956   1.083   1_556  S
C954       Br960   1.918   1_556  S
C961        C962   1.408       .  A
C961        C966   1.404       .  A
C962        C963   1.399       .  A
C962       Br978   1.921       .  S
C963        C964   1.406   1_556  A
C963        H967   1.084       .  S
C964        C968   1.489       .  S
C964        C965   1.411       .  A
C965        C966   1.401   1_554  A
C965       Br977   1.919       .  S
C966        H969   1.084       .  S
C968        C970   1.405       .  A
C968        C974   1.413       .  A
C970        C971   1.401       .  A
C970        H975   1.083       .  S
C971        C972   1.406       .  A
C971       Br979   1.917   1_655  S
C972        C973   1.404       .  A
C973        C974   1.401       .  A
C973        H976   1.083       .  S
C974       Br980   1.922       .  S
C981        C982   1.420       .  A
C981        C986   1.412       .  A
C982        C983   1.405       .  A
C982       Br998   1.922       .  S
C983        C984   1.404       .  A
C983        H987   1.083       .  S
C984        C988   1.489       .  S
C984        C985   1.405       .  A
C985        C986   1.401       .  A
C985       Br997   1.918       .  S
C986        H989   1.082       .  S
C988        C990   1.404       .  A
C988        C994   1.411       .  A
C990        C991   1.402       .  A
C990        H995   1.084       .  S
C991        C992   1.410       .  A
C991       Br999   1.918       .  S
C992        C993   1.403       .  A
C993        C994   1.403       .  A
C993        H996   1.084   1_655  S
C994      Br1000   1.918       .  S
C1001      C1002   1.415       .  A
C1001      C1006   1.403       .  A
C1002      C1003   1.397       .  A
C1002     Br1018   1.922       .  S
C1003      C1004   1.398       .  A
C1003      H1007   1.084       .  S
C1004      C1008   1.474       .  S
C1004      C1005   1.408       .  A
C1005      C1006   1.400       .  A
C1005     Br1017   1.918       .  S
C1006      H1009   1.084       .  S
C1008      C1010   1.401       .  A
C1008      C1014   1.407       .  A
C1010      C1011   1.397       .  A
C1010      H1015   1.083       .  S
C1011      C1012   1.407       .  A
C1011     Br1019   1.918   1_565  S
C1012      C1013   1.404       .  A
C1013      C1014   1.400       .  A
C1013      H1016   1.083       .  S
C1014     Br1020   1.918       .  S
C1021      C1022   1.419       .  A
C1021      C1026   1.414       .  A
C1022      C1023   1.402       .  A
C1022     Br1038   1.922       .  S
C1023      C1024   1.402       .  A
C1023      H1027   1.084       .  S
C1024      C1028   1.481       .  S
C1024      C1025   1.402       .  A
C1025      C1026   1.400       .  A
C1025     Br1037   1.919       .  S
C1026      H1029   1.083       .  S
C1028      C1030   1.403       .  A
C1028      C1034   1.410       .  A
C1030      C1031   1.400       .  A
C1030      H1035   1.083       .  S
C1031      C1032   1.408       .  A
C1031     Br1039   1.918       .  S
C1032      C1033   1.401       .  A
C1033      C1034   1.400       .  A
C1033      H1036   1.083       .  S
C1034     Br1040   1.918       .  S
C1041      C1042   1.418       .  A
C1041      C1046   1.413       .  A
C1042      C1043   1.402       .  A
C1042     Br1058   1.921       .  S
C1043      C1044   1.401       .  A
C1043      H1047   1.084       .  S
C1044      C1048   1.481       .  S
C1044      C1045   1.403       .  A
C1045      C1046   1.401       .  A
C1045     Br1057   1.917       .  S
C1046      H1049   1.084       .  S
C1048      C1050   1.403   1_655  A
C1048      C1054   1.409       .  A
C1050      C1051   1.403       .  A
C1050      H1055   1.083       .  S
C1051      C1052   1.410   1_455  A
C1051     Br1059   1.917       .  S
C1052      C1053   1.402       .  A
C1053      C1054   1.400       .  A
C1053      H1056   1.083       .  S
C1054     Br1060   1.919       .  S
C1061      C1062   1.407   1_545  A
C1061      C1066   1.401       .  A
C1062      C1063   1.401   1_565  A
C1062     Br1078   1.917       .  S
C1063      C1064   1.405       .  A
C1063      H1067   1.084   1_545  S
C1064      C1068   1.486       .  S
C1064      C1065   1.411       .  A
C1065      C1066   1.399       .  A
C1065     Br1077   1.920       .  S
C1066      H1069   1.084       .  S
C1068      C1070   1.403   1_455  A
C1068      C1074   1.406       .  A
C1070      C1071   1.400       .  A
C1070      H1075   1.084       .  S
C1071      C1072   1.418       .  A
C1071     Br1079   1.923       .  S
C1072      C1073   1.413       .  A
C1073      C1074   1.401   1_655  A
C1073      H1076   1.083       .  S
C1074     Br1080   1.919       .  S
C1081      C1082   1.408       .  A
C1081      C1086   1.406       .  A
C1082      C1083   1.402       .  A
C1082     Br1098   1.917       .  S
C1083      C1084   1.403       .  A
C1083      H1087   1.083       .  S
C1084      C1088   1.481       .  S
C1084      C1085   1.407       .  A
C1085      C1086   1.401       .  A
C1085     Br1097   1.918       .  S
C1086      H1089   1.083       .  S
C1088      C1090   1.399       .  A
C1088      C1094   1.407       .  A
C1090      C1091   1.402       .  A
C1090      H1095   1.085       .  S
C1091      C1092   1.422       .  A
C1091     Br1099   1.923       .  S
C1092      C1093   1.408       .  A
C1093      C1094   1.400       .  A
C1093      H1096   1.084       .  S
C1094     Br1100   1.919       .  S
C1101      C1102   1.410       .  A
C1101      C1106   1.403       .  A
C1102      C1103   1.400       .  A
C1102     Br1118   1.919       .  S
C1103      C1104   1.403       .  A
C1103      H1107   1.084       .  S
C1104      C1108   1.482   1_565  S
C1104      C1105   1.408       .  A
C1105      C1106   1.401       .  A
C1105     Br1117   1.918       .  S
C1106      H1109   1.084       .  S
C1108      C1110   1.398   1_545  A
C1108      C1114   1.406       .  A
C1110      C1111   1.401   1_565  A
C1110      H1115   1.082       .  S
C1111      C1112   1.424       .  A
C1111     Br1119   1.924       .  S
C1112      C1113   1.410       .  A
C1113      C1114   1.401       .  A
C1113      H1116   1.082       .  S
C1114     Br1120   1.919       .  S
C1121      C1122   1.413       .  A
C1121      C1126   1.410       .  A
C1122      C1123   1.401       .  A
C1122     Br1138   1.920       .  S
C1123      C1124   1.402       .  A
C1123      H1127   1.084       .  S
C1124      C1128   1.477       .  S
C1124      C1125   1.403       .  A
C1125      C1126   1.400       .  A
C1125     Br1137   1.918       .  S
C1126      H1129   1.084       .  S
C1128      C1130   1.400       .  A
C1128      C1134   1.409       .  A
C1130      C1131   1.396       .  A
C1130      H1135   1.083       .  S
C1131      C1132   1.408       .  A
C1131     Br1139   1.918       .  S
C1132      C1133   1.403       .  A
C1133      C1134   1.402       .  A
C1133      H1136   1.083       .  S
C1134     Br1140   1.917       .  S
C1141      C1142   1.419       .  A
C1141      C1146   1.404       .  A
C1142      C1143   1.398       .  A
C1142     Br1158   1.924       .  S
C1143      C1144   1.398       .  A
C1143      H1147   1.084       .  S
C1144      C1148   1.475       .  S
C1144      C1145   1.408       .  A
C1145      C1146   1.398       .  A
C1145     Br1157   1.919       .  S
C1146      H1149   1.084       .  S
C1148      C1150   1.402       .  A
C1148      C1154   1.407       .  A
C1150      C1151   1.397       .  A
C1150      H1155   1.083       .  S
C1151      C1152   1.409       .  A
C1151     Br1159   1.918   1_556  S
C1152      C1153   1.403       .  A
C1153      C1154   1.400       .  A
C1153      H1156   1.083       .  S
C1154     Br1160   1.918       .  S
C1161      C1162   1.412       .  A
C1161      C1166   1.406       .  A
C1162      C1163   1.399       .  A
C1162     Br1178   1.921       .  S
C1163      C1164   1.401       .  A
C1163      H1167   1.085       .  S
C1164      C1168   1.476       .  S
C1164      C1165   1.405       .  A
C1165      C1166   1.401       .  A
C1165     Br1177   1.917       .  S
C1166      H1169   1.084       .  S
C1168      C1170   1.401       .  A
C1168      C1174   1.408       .  A
C1170      C1171   1.399   1_565  A
C1170      H1175   1.083   1_565  S
C1171      C1172   1.410   1_545  A
C1171     Br1179   1.919       .  S
C1172      C1173   1.402       .  A
C1173      C1174   1.399       .  A
C1173      H1176   1.083       .  S
C1174     Br1180   1.918       .  S
C1181      C1182   1.420       .  A
C1181      C1186   1.407       .  A
C1182      C1183   1.399       .  A
C1182     Br1198   1.924       .  S
C1183      C1184   1.398       .  A
C1183      H1187   1.084       .  S
C1184      C1188   1.478       .  S
C1184      C1185   1.407       .  A
C1185      C1186   1.400       .  A
C1185     Br1197   1.918       .  S
C1186      H1189   1.083       .  S
C1188      C1190   1.403       .  A
C1188      C1194   1.406       .  A
C1190      C1191   1.402       .  A
C1190      H1195   1.083       .  S
C1191      C1192   1.408       .  A
C1191     Br1199   1.916   1_565  S
C1192      C1193   1.406       .  A
C1193      C1194   1.399       .  A
C1193      H1196   1.083       .  S
C1194     Br1200   1.919       .  S
C1201      C1202   1.422       .  A
C1201      C1206   1.409       .  A
C1202      C1203   1.402   1_565  A
C1202     Br1218   1.922       .  S
C1203      C1204   1.398       .  A
C1203      H1207   1.085       .  S
C1204      C1208   1.490       .  S
C1204      C1205   1.411   1_545  A
C1205      C1206   1.407       .  A
C1205     Br1217   1.919       .  S
C1206      H1209   1.085       .  S
C1208      C1210   1.404       .  A
C1208      C1214   1.410       .  A
C1210      C1211   1.402       .  A
C1210      H1215   1.082       .  S
C1211      C1212   1.409       .  A
C1211     Br1219   1.919       .  S
C1212      C1213   1.406   1_554  A
C1213      C1214   1.406   1_556  A
C1213      H1216   1.082       .  S
C1214     Br1220   1.918   1_554  S
C1221      C1222   1.421       .  A
C1221      C1226   1.405       .  A
C1222      C1223   1.399       .  A
C1222     Br1238   1.924       .  S
C1223      C1224   1.397       .  A
C1223      H1227   1.084       .  S
C1224      C1228   1.480       .  S
C1224      C1225   1.410       .  A
C1225      C1226   1.402       .  A
C1225     Br1237   1.919       .  S
C1226      H1229   1.083       .  S
C1228      C1230   1.404       .  A
C1228      C1234   1.405       .  A
C1230      C1231   1.405       .  A
C1230      H1235   1.083       .  S
C1231      C1232   1.410       .  A
C1231     Br1239   1.917       .  S
C1232      C1233   1.407       .  A
C1233      C1234   1.397       .  A
C1233      H1236   1.084       .  S
C1234     Br1240   1.919       .  S
C1241      C1242   1.418       .  A
C1241      C1246   1.404       .  A
C1242      C1243   1.397       .  A
C1242     Br1258   1.923       .  S
C1243      C1244   1.396       .  A
C1243      H1247   1.084       .  S
C1244      C1248   1.477       .  S
C1244      C1245   1.410       .  A
C1245      C1246   1.403       .  A
C1245     Br1257   1.918       .  S
C1246      H1249   1.084       .  S
C1248      C1250   1.402       .  A
C1248      C1254   1.407       .  A
C1250      C1251   1.401       .  A
C1250      H1255   1.083       .  S
C1251      C1252   1.408       .  A
C1251     Br1259   1.918   1_554  S
C1252      C1253   1.402       .  A
C1253      C1254   1.399       .  A
C1253      H1256   1.083       .  S
C1254     Br1260   1.918       .  S
C1261      C1262   1.409       .  A
C1261      C1266   1.404       .  A
C1262      C1263   1.404       .  A
C1262     Br1278   1.918       .  S
C1263      C1264   1.404       .  A
C1263      H1267   1.083       .  S
C1264      C1268   1.479       .  S
C1264      C1265   1.406       .  A
C1265      C1266   1.397       .  A
C1265     Br1277   1.918       .  S
C1266      H1269   1.083       .  S
C1268      C1270   1.398       .  A
C1268      C1274   1.407       .  A
C1270      C1271   1.401       .  A
C1270      H1275   1.084       .  S
C1271      C1272   1.420       .  A
C1271     Br1279   1.922       .  S
C1272      C1273   1.408       .  A
C1273      C1274   1.401       .  A
C1273      H1276   1.083       .  S
C1274     Br1280   1.919       .  S
C1281      C1282   1.410       .  A
C1281      C1286   1.402       .  A
C1282      C1283   1.400       .  A
C1282     Br1298   1.919   1_554  S
C1283      C1284   1.401       .  A
C1283      H1287   1.083   1_554  S
C1284      C1288   1.476       .  S
C1284      C1285   1.409       .  A
C1285      C1286   1.400       .  A
C1285     Br1297   1.919       .  S
C1286      H1289   1.083       .  S
C1288      C1290   1.402       .  A
C1288      C1294   1.404       .  A
C1290      C1291   1.400       .  A
C1290      H1295   1.084       .  S
C1291      C1292   1.413       .  A
C1291     Br1299   1.921       .  S
C1292      C1293   1.406       .  A
C1293      C1294   1.398       .  A
C1293      H1296   1.084       .  S
C1294     Br1300   1.917       .  S
C1301      C1302   1.413       .  A
C1301      C1306   1.408       .  A
C1302      C1303   1.401       .  A
C1302     Br1318   1.921       .  S
C1303      C1304   1.403       .  A
C1303      H1307   1.083       .  S
C1304      C1308   1.479       .  S
C1304      C1305   1.404       .  A
C1305      C1306   1.399       .  A
C1305     Br1317   1.918       .  S
C1306      H1309   1.083       .  S
C1308      C1310   1.402       .  A
C1308      C1314   1.409       .  A
C1310      C1311   1.398       .  A
C1310      H1315   1.084       .  S
C1311      C1312   1.407       .  A
C1311     Br1319   1.918       .  S
C1312      C1313   1.403       .  A
C1313      C1314   1.400       .  A
C1313      H1316   1.084       .  S
C1314     Br1320   1.918       .  S
C1321      C1322   1.421       .  A
C1321      C1326   1.407       .  A
C1322      C1323   1.401       .  A
C1322     Br1338   1.923       .  S
C1323      C1324   1.400       .  A
C1323      H1327   1.084       .  S
C1324      C1328   1.487       .  S
C1324      C1325   1.410       .  A
C1325      C1326   1.402       .  A
C1325     Br1337   1.920       .  S
C1326      H1329   1.084       .  S
C1328      C1330   1.405       .  A
C1328      C1334   1.412       .  A
C1330      C1331   1.401       .  A
C1330      H1335   1.083       .  S
C1331      C1332   1.408       .  A
C1331     Br1339   1.918       .  S
C1332      C1333   1.402       .  A
C1333      C1334   1.402       .  A
C1333      H1336   1.084       .  S
C1334     Br1340   1.919       .  S
C1341      C1342   1.418       .  A
C1341      C1346   1.406       .  A
C1342      C1343   1.397   1_554  A
C1342     Br1358   1.922       .  S
C1343      C1344   1.397       .  A
C1343      H1347   1.086       .  S
C1344      C1348   1.477       .  S
C1344      C1345   1.410   1_556  A
C1345      C1346   1.401       .  A
C1345     Br1357   1.920       .  S
C1346      H1349   1.085       .  S
C1348      C1350   1.404       .  A
C1348      C1354   1.406       .  A
C1350      C1351   1.400       .  A
C1350      H1355   1.083       .  S
C1351      C1352   1.407       .  A
C1351     Br1359   1.918       .  S
C1352      C1353   1.404       .  A
C1353      C1354   1.397       .  A
C1353      H1356   1.083       .  S
C1354     Br1360   1.918       .  S
C1361      C1362   1.412       .  A
C1361      C1366   1.408       .  A
C1362      C1363   1.402       .  A
C1362     Br1378   1.919       .  S
C1363      C1364   1.404   1_554  A
C1363      H1367   1.084       .  S
C1364      C1368   1.480       .  S
C1364      C1365   1.404       .  A
C1365      C1366   1.400   1_556  A
C1365     Br1377   1.917       .  S
C1366      H1369   1.084       .  S
C1368      C1370   1.401       .  A
C1368      C1374   1.410       .  A
C1370      C1371   1.399       .  A
C1370      H1375   1.083       .  S
C1371      C1372   1.409       .  A
C1371     Br1379   1.918       .  S
C1372      C1373   1.404       .  A
C1373      C1374   1.403       .  A
C1373      H1376   1.083       .  S
C1374     Br1380   1.919       .  S
C1381      C1382   1.411       .  A
C1381      C1386   1.407       .  A
C1382      C1383   1.406       .  A
C1382     Br1398   1.918       .  S
C1383      C1384   1.405       .  A
C1383      H1387   1.083       .  S
C1384      C1388   1.488       .  S
C1384      C1385   1.407       .  A
C1385      C1386   1.403       .  A
C1385     Br1397   1.917       .  S
C1386      H1389   1.083       .  S
C1388      C1390   1.402       .  A
C1388      C1394   1.411       .  A
C1390      C1391   1.404       .  A
C1390      H1395   1.085       .  S
C1391      C1392   1.414       .  A
C1391     Br1399   1.919       .  S
C1392      C1393   1.405       .  A
C1393      C1394   1.404       .  A
C1393      H1396   1.085       .  S
C1394     Br1400   1.918       .  S
C1401      C1402   1.411       .  A
C1401      C1406   1.402       .  A
C1402      C1403   1.399       .  A
C1402     Br1418   1.919       .  S
C1403      C1404   1.401       .  A
C1403      H1407   1.084       .  S
C1404      C1408   1.481       .  S
C1404      C1405   1.410       .  A
C1405      C1406   1.401       .  A
C1405     Br1417   1.919       .  S
C1406      H1409   1.084       .  S
C1408      C1410   1.402       .  A
C1408      C1414   1.405       .  A
C1410      C1411   1.398       .  A
C1410      H1415   1.083       .  S
C1411      C1412   1.416       .  A
C1411     Br1419   1.923       .  S
C1412      C1413   1.410       .  A
C1413      C1414   1.401       .  A
C1413      H1416   1.083       .  S
C1414     Br1420   1.918       .  S
C1421      C1422   1.419       .  A
C1421      C1426   1.409       .  A
C1422      C1423   1.399       .  A
C1422     Br1438   1.924       .  S
C1423      C1424   1.402       .  A
C1423      H1427   1.083       .  S
C1424      C1428   1.489       .  S
C1424      C1425   1.409       .  A
C1425      C1426   1.404       .  A
C1425     Br1437   1.918       .  S
C1426      H1429   1.083       .  S
C1428      C1430   1.403       .  A
C1428      C1434   1.414       .  A
C1430      C1431   1.400       .  A
C1430      H1435   1.084       .  S
C1431      C1432   1.409       .  A
C1431     Br1439   1.919       .  S
C1432      C1433   1.403       .  A
C1433      C1434   1.403       .  A
C1433      H1436   1.084       .  S
C1434     Br1440   1.921       .  S
C1441      C1442   1.420       .  A
C1441      C1446   1.414       .  A
C1442      C1443   1.401       .  A
C1442     Br1458   1.922       .  S
C1443      C1444   1.401       .  A
C1443      H1447   1.084       .  S
C1444      C1448   1.476       .  S
C1444      C1445   1.401       .  A
C1445      C1446   1.398       .  A
C1445     Br1457   1.918       .  S
C1446      H1449   1.084       .  S
C1448      C1450   1.402       .  A
C1448      C1454   1.407       .  A
C1450      C1451   1.399       .  A
C1450      H1455   1.083       .  S
C1451      C1452   1.407       .  A
C1451     Br1459   1.918       .  S
C1452      C1453   1.403       .  A
C1453      C1454   1.398       .  A
C1453      H1456   1.083       .  S
C1454     Br1460   1.918       .  S
C1461      C1462   1.413       .  A
C1461      C1466   1.404       .  A
C1462      C1463   1.403       .  A
C1462     Br1478   1.919       .  S
C1463      C1464   1.404       .  A
C1463      H1467   1.083       .  S
C1464      C1468   1.486       .  S
C1464      C1465   1.410       .  A
C1465      C1466   1.400       .  A
C1465     Br1477   1.919       .  S
C1466      H1469   1.083       .  S
C1468      C1470   1.406       .  A
C1468      C1474   1.409       .  A
C1470      C1471   1.403       .  A
C1470      H1475   1.083       .  S
C1471      C1472   1.408       .  A
C1471     Br1479   1.918       .  S
C1472      C1473   1.404       .  A
C1473      C1474   1.401       .  A
C1473      H1476   1.083       .  S
C1474     Br1480   1.919       .  S
C1481      C1482   1.422       .  A
C1481      C1486   1.407       .  A
C1482      C1483   1.400       .  A
C1482     Br1498   1.925       .  S
C1483      C1484   1.399       .  A
C1483      H1487   1.084       .  S
C1484      C1488   1.484       .  S
C1484      C1485   1.408       .  A
C1485      C1486   1.402       .  A
C1485     Br1497   1.918       .  S
C1486      H1489   1.083       .  S
C1488      C1490   1.404       .  A
C1488      C1494   1.408       .  A
C1490      C1491   1.403       .  A
C1490      H1495   1.083       .  S
C1491      C1492   1.410       .  A
C1491     Br1499   1.917       .  S
C1492      C1493   1.404       .  A
C1493      C1494   1.401       .  A
C1493      H1496   1.083       .  S
C1494     Br1500   1.918       .  S
C1501      C1502   1.408       .  A
C1501      C1506   1.402       .  A
C1502      C1503   1.402       .  A
C1502     Br1518   1.918       .  S
C1503      C1504   1.404       .  A
C1503      H1507   1.083       .  S
C1504      C1508   1.478       .  S
C1504      C1505   1.407       .  A
C1505      C1506   1.397       .  A
C1505     Br1517   1.919       .  S
C1506      H1509   1.083       .  S
C1508      C1510   1.403       .  A
C1508      C1514   1.404       .  A
C1510      C1511   1.401       .  A
C1510      H1515   1.084       .  S
C1511      C1512   1.412       .  A
C1511     Br1519   1.918       .  S
C1512      C1513   1.410       .  A
C1513      C1514   1.400       .  A
C1513      H1516   1.084       .  S
C1514     Br1520   1.919       .  S
C1521      C1522   1.410       .  A
C1521      C1526   1.403       .  A
C1522      C1523   1.395       .  A
C1522     Br1538   1.919   1_545  S
C1523      C1524   1.401       .  A
C1523      H1527   1.084       .  S
C1524      C1528   1.479       .  S
C1524      C1525   1.411       .  A
C1525      C1526   1.401       .  A
C1525     Br1537   1.918       .  S
C1526      H1529   1.084       .  S
C1528      C1530   1.403       .  A
C1528      C1534   1.405       .  A
C1530      C1531   1.400       .  A
C1530      H1535   1.083       .  S
C1531      C1532   1.415       .  A
C1531     Br1539   1.922       .  S
C1532      C1533   1.408       .  A
C1533      C1534   1.398       .  A
C1533      H1536   1.083       .  S
C1534     Br1540   1.918       .  S
C1541      C1542   1.412       .  A
C1541      C1546   1.403       .  A
C1542      C1543   1.400       .  A
C1542     Br1558   1.920   1_545  S
C1543      C1544   1.404       .  A
C1543      H1547   1.083       .  S
C1544      C1548   1.491       .  S
C1544      C1545   1.413       .  A
C1545      C1546   1.405       .  A
C1545     Br1557   1.917       .  S
C1546      H1549   1.082       .  S
C1548      C1550   1.400       .  A
C1548      C1554   1.411       .  A
C1550      C1551   1.404       .  A
C1550      H1555   1.084       .  S
C1551      C1552   1.425       .  A
C1551     Br1559   1.923       .  S
C1552      C1553   1.408       .  A
C1553      C1554   1.402       .  A
C1553      H1556   1.084       .  S
C1554     Br1560   1.920       .  S
C1561      C1562   1.423       .  A
C1561      C1566   1.408       .  A
C1562      C1563   1.397       .  A
C1562     Br1578   1.925       .  S
C1563      C1564   1.397       .  A
C1563      H1567   1.084       .  S
C1564      C1568   1.476       .  S
C1564      C1565   1.407       .  A
C1565      C1566   1.399       .  A
C1565     Br1577   1.920       .  S
C1566      H1569   1.083       .  S
C1568      C1570   1.402       .  A
C1568      C1574   1.408       .  A
C1570      C1571   1.398       .  A
C1570      H1575   1.084       .  S
C1571      C1572   1.408       .  A
C1571     Br1579   1.918       .  S
C1572      C1573   1.401       .  A
C1573      C1574   1.397       .  A
C1573      H1576   1.084       .  S
C1574     Br1580   1.919       .  S
C1581      C1582   1.410       .  A
C1581      C1586   1.405       .  A
C1582      C1583   1.406       .  A
C1582     Br1598   1.918       .  S
C1583      C1584   1.406       .  A
C1583      H1587   1.082       .  S
C1584      C1588   1.494       .  S
C1584      C1585   1.411       .  A
C1585      C1586   1.406       .  A
C1585     Br1597   1.918       .  S
C1586      H1589   1.083       .  S
C1588      C1590   1.403       .  A
C1588      C1594   1.409       .  A
C1590      C1591   1.408       .  A
C1590      H1595   1.084       .  S
C1591      C1592   1.422       .  A
C1591     Br1599   1.921       .  S
C1592      C1593   1.409       .  A
C1593      C1594   1.404       .  A
C1593      H1596   1.084       .  S
C1594     Br1600   1.919       .  S
C1601      C1602   1.420       .  A
C1601      C1606   1.410       .  A
C1602      C1603   1.404       .  A
C1602     Br1618   1.923       .  S
C1603      C1604   1.403       .  A
C1603      H1607   1.084       .  S
C1604      C1608   1.485       .  S
C1604      C1605   1.405       .  A
C1605      C1606   1.399       .  A
C1605     Br1617   1.918       .  S
C1606      H1609   1.083       .  S
C1608      C1610   1.402       .  A
C1608      C1614   1.411       .  A
C1610      C1611   1.399       .  A
C1610      H1615   1.084       .  S
C1611      C1612   1.412       .  A
C1611     Br1619   1.919       .  S
C1612      C1613   1.404       .  A
C1613      C1614   1.404       .  A
C1613      H1616   1.083       .  S
C1614     Br1620   1.918       .  S
C1621      C1622   1.422       .  A
C1621      C1626   1.408       .  A
C1622      C1623   1.405       .  A
C1622     Br1638   1.922       .  S
C1623      C1624   1.402       .  A
C1623      H1627   1.083   1_545  S
C1624      C1628   1.490   1_545  S
C1624      C1625   1.410       .  A
C1625      C1626   1.401       .  A
C1625     Br1637   1.921       .  S
C1626      H1629   1.082       .  S
C1628      C1630   1.405       .  A
C1628      C1634   1.411       .  A
C1630      C1631   1.400       .  A
C1630      H1635   1.083       .  S
C1631      C1632   1.408       .  A
C1631     Br1639   1.918       .  S
C1632      C1633   1.405       .  A
C1633      C1634   1.404       .  A
C1633      H1636   1.083       .  S
C1634     Br1640   1.918       .  S
C1641      C1642   1.414       .  A
C1641      C1646   1.410       .  A
C1642      C1643   1.401       .  A
C1642     Br1658   1.920       .  S
C1643      C1644   1.403       .  A
C1643      H1647   1.083       .  S
C1644      C1648   1.481       .  S
C1644      C1645   1.405       .  A
C1645      C1646   1.400       .  A
C1645     Br1657   1.918       .  S
C1646      H1649   1.083       .  S
C1648      C1650   1.402       .  A
C1648      C1654   1.411       .  A
C1650      C1651   1.400       .  A
C1650      H1655   1.083       .  S
C1651      C1652   1.408       .  A
C1651     Br1659   1.918       .  S
C1652      C1653   1.402       .  A
C1653      C1654   1.401       .  A
C1653      H1656   1.083       .  S
C1654     Br1660   1.919       .  S
C1661      C1662   1.410       .  A
C1661      C1666   1.403       .  A
C1662      C1663   1.402       .  A
C1662     Br1678   1.918       .  S
C1663      C1664   1.404       .  A
C1663      H1667   1.083       .  S
C1664      C1668   1.481       .  S
C1664      C1665   1.407       .  A
C1665      C1666   1.398       .  A
C1665     Br1677   1.918       .  S
C1666      H1669   1.083   1_455  S
C1668      C1670   1.400       .  A
C1668      C1674   1.404       .  A
C1670      C1671   1.400       .  A
C1670      H1675   1.083       .  S
C1671      C1672   1.420       .  A
C1671     Br1679   1.923       .  S
C1672      C1673   1.412       .  A
C1673      C1674   1.402       .  A
C1673      H1676   1.083       .  S
C1674     Br1680   1.918       .  S
C1681      C1682   1.415       .  A
C1681      C1686   1.408       .  A
C1682      C1683   1.404       .  A
C1682     Br1698   1.920       .  S
C1683      C1684   1.404       .  A
C1683      H1687   1.084       .  S
C1684      C1688   1.485       .  S
C1684      C1685   1.406       .  A
C1685      C1686   1.400       .  A
C1685     Br1697   1.918       .  S
C1686      H1689   1.084       .  S
C1688      C1690   1.404       .  A
C1688      C1694   1.410       .  A
C1690      C1691   1.402       .  A
C1690      H1695   1.083       .  S
C1691      C1692   1.408       .  A
C1691     Br1699   1.918   1_455  S
C1692      C1693   1.404       .  A
C1693      C1694   1.402       .  A
C1693      H1696   1.084       .  S
C1694     Br1700   1.919       .  S
C1701      C1702   1.416       .  A
C1701      C1706   1.405       .  A
C1702      C1703   1.401       .  A
C1702     Br1718   1.921       .  S
C1703      C1704   1.402       .  A
C1703      H1707   1.084       .  S
C1704      C1708   1.489       .  S
C1704      C1705   1.412       .  A
C1705      C1706   1.403       .  A
C1705     Br1717   1.920       .  S
C1706      H1709   1.084       .  S
C1708      C1710   1.405       .  A
C1708      C1714   1.412       .  A
C1710      C1711   1.402       .  A
C1710      H1715   1.083       .  S
C1711      C1712   1.408       .  A
C1711     Br1719   1.918       .  S
C1712      C1713   1.403       .  A
C1713      C1714   1.402       .  A
C1713      H1716   1.083       .  S
C1714     Br1720   1.919       .  S
C1721      C1722   1.409       .  A
C1721      C1726   1.404       .  A
C1722      C1723   1.401       .  A
C1722     Br1738   1.917       .  S
C1723      C1724   1.402       .  A
C1723      H1727   1.082       .  S
C1724      C1728   1.477       .  S
C1724      C1725   1.407       .  A
C1725      C1726   1.399       .  A
C1725     Br1737   1.919       .  S
C1726      H1729   1.083       .  S
C1728      C1730   1.402       .  A
C1728      C1734   1.403       .  A
C1730      C1731   1.402       .  A
C1730      H1735   1.084       .  S
C1731      C1732   1.415       .  A
C1731     Br1739   1.921       .  S
C1732      C1733   1.411       .  A
C1733      C1734   1.397       .  A
C1733      H1736   1.084       .  S
C1734     Br1740   1.918       .  S
C1741      C1742   1.408       .  A
C1741      C1746   1.404       .  A
C1742      C1743   1.399       .  A
C1742     Br1758   1.919       .  S
C1743      C1744   1.404       .  A
C1743      H1747   1.084       .  S
C1744      C1748   1.480   1_655  S
C1744      C1745   1.408       .  A
C1745      C1746   1.400       .  A
C1745     Br1757   1.919       .  S
C1746      H1749   1.084       .  S
C1748      C1750   1.401       .  A
C1748      C1754   1.407       .  A
C1750      C1751   1.402       .  A
C1750      H1755   1.083   1_455  S
C1751      C1752   1.416       .  A
C1751     Br1759   1.921       .  S
C1752      C1753   1.407       .  A
C1753      C1754   1.397       .  A
C1753      H1756   1.083       .  S
C1754     Br1760   1.921       .  S
C1761      C1762   1.408       .  A
C1761      C1766   1.404       .  A
C1762      C1763   1.399       .  A
C1762     Br1778   1.919       .  S
C1763      C1764   1.404       .  A
C1763      H1767   1.083       .  S
C1764      C1768   1.482       .  S
C1764      C1765   1.408       .  A
C1765      C1766   1.401       .  A
C1765     Br1777   1.918       .  S
C1766      H1769   1.083       .  S
C1768      C1770   1.403   1_545  A
C1768      C1774   1.403       .  A
C1770      C1771   1.403       .  A
C1770      H1775   1.083       .  S
C1771      C1772   1.419       .  A
C1771     Br1779   1.921       .  S
C1772      C1773   1.412       .  A
C1773      C1774   1.398   1_565  A
C1773      H1776   1.083       .  S
C1774     Br1780   1.919       .  S
C1781      C1782   1.414       .  A
C1781      C1786   1.409       .  A
C1782      C1783   1.400       .  A
C1782     Br1798   1.921       .  S
C1783      C1784   1.403       .  A
C1783      H1787   1.084       .  S
C1784      C1788   1.484       .  S
C1784      C1785   1.407       .  A
C1785      C1786   1.402       .  A
C1785     Br1797   1.919       .  S
C1786      H1789   1.084       .  S
C1788      C1790   1.405       .  A
C1788      C1794   1.408       .  A
C1790      C1791   1.402       .  A
C1790      H1795   1.084       .  S
C1791      C1792   1.409       .  A
C1791     Br1799   1.918       .  S
C1792      C1793   1.406       .  A
C1793      C1794   1.398       .  A
C1793      H1796   1.084   1_455  S
C1794     Br1800   1.919   1_455  S
C1801      C1802   1.409       .  A
C1801      C1806   1.405       .  A
C1802      C1803   1.405       .  A
C1802     Br1818   1.917       .  S
C1803      C1804   1.405       .  A
C1803      H1807   1.083       .  S
C1804      C1808   1.489       .  S
C1804      C1805   1.410       .  A
C1805      C1806   1.402       .  A
C1805     Br1817   1.920       .  S
C1806      H1809   1.083       .  S
C1808      C1810   1.401       .  A
C1808      C1814   1.410       .  A
C1810      C1811   1.404       .  A
C1810      H1815   1.085       .  S
C1811      C1812   1.420       .  A
C1811     Br1819   1.922       .  S
C1812      C1813   1.407       .  A
C1813      C1814   1.402       .  A
C1813      H1816   1.085       .  S
C1814     Br1820   1.920       .  S
C1821      C1822   1.421       .  A
C1821      C1826   1.405       .  A
C1822      C1823   1.401       .  A
C1822     Br1838   1.924       .  S
C1823      C1824   1.397       .  A
C1823      H1827   1.085       .  S
C1824      C1828   1.479       .  S
C1824      C1825   1.409       .  A
C1825      C1826   1.400       .  A
C1825     Br1837   1.920       .  S
C1826      H1829   1.084       .  S
C1828      C1830   1.402       .  A
C1828      C1834   1.408       .  A
C1830      C1831   1.400       .  A
C1830      H1835   1.083       .  S
C1831      C1832   1.408       .  A
C1831     Br1839   1.918       .  S
C1832      C1833   1.403       .  A
C1833      C1834   1.400       .  A
C1833      H1836   1.083       .  S
C1834     Br1840   1.917       .  S
C1841      C1842   1.412       .  A
C1841      C1846   1.405       .  A
C1842      C1843   1.398       .  A
C1842     Br1858   1.921       .  S
C1843      C1844   1.400       .  A
C1843      H1847   1.083       .  S
C1844      C1848   1.482       .  S
C1844      C1845   1.409       .  A
C1845      C1846   1.405       .  A
C1845     Br1857   1.917       .  S
C1846      H1849   1.083       .  S
C1848      C1850   1.399       .  A
C1848      C1854   1.408       .  A
C1850      C1851   1.403       .  A
C1850      H1855   1.084       .  S
C1851      C1852   1.422       .  A
C1851     Br1859   1.923       .  S
C1852      C1853   1.407       .  A
C1853      C1854   1.401       .  A
C1853      H1856   1.084       .  S
C1854     Br1860   1.919       .  S
C1861      C1862   1.409       .  A
C1861      C1866   1.402       .  A
C1862      C1863   1.397       .  A
C1862     Br1878   1.919       .  S
C1863      C1864   1.400       .  A
C1863      H1867   1.083       .  S
C1864      C1868   1.476       .  S
C1864      C1865   1.409       .  A
C1865      C1866   1.400       .  A
C1865     Br1877   1.917       .  S
C1866      H1869   1.083       .  S
C1868      C1870   1.400       .  A
C1868      C1874   1.409   1_545  A
C1870      C1871   1.401   1_545  A
C1870      H1875   1.084       .  S
C1871      C1872   1.414       .  A
C1871     Br1879   1.920       .  S
C1872      C1873   1.401       .  A
C1873      C1874   1.399       .  A
C1873      H1876   1.084       .  S
C1874     Br1880   1.919       .  S
C1881      C1882   1.414       .  A
C1881      C1886   1.410       .  A
C1882      C1883   1.405       .  A
C1882     Br1898   1.919       .  S
C1883      C1884   1.405       .  A
C1883      H1887   1.083       .  S
C1884      C1888   1.487       .  S
C1884      C1885   1.405       .  A
C1885      C1886   1.402       .  A
C1885     Br1897   1.918       .  S
C1886      H1889   1.083       .  S
C1888      C1890   1.405       .  A
C1888      C1894   1.408       .  A
C1890      C1891   1.403       .  A
C1890      H1895   1.084       .  S
C1891      C1892   1.409       .  A
C1891     Br1899   1.918       .  S
C1892      C1893   1.405       .  A
C1893      C1894   1.403       .  A
C1893      H1896   1.083       .  S
C1894     Br1900   1.917       .  S
C1901      C1902   1.415       .  A
C1901      C1906   1.412       .  A
C1902      C1903   1.403       .  A
C1902     Br1918   1.920       .  S
C1903      C1904   1.403       .  A
C1903      H1907   1.084       .  S
C1904      C1908   1.480       .  S
C1904      C1905   1.403       .  A
C1905      C1906   1.400       .  A
C1905     Br1917   1.919       .  S
C1906      H1909   1.084       .  S
C1908      C1910   1.406       .  A
C1908      C1914   1.406       .  A
C1910      C1911   1.405       .  A
C1910      H1915   1.083       .  S
C1911      C1912   1.408       .  A
C1911     Br1919   1.917       .  S
C1912      C1913   1.404       .  A
C1913      C1914   1.396       .  A
C1913      H1916   1.084       .  S
C1914     Br1920   1.918       .  S
C1921      C1922   1.417       .  A
C1921      C1926   1.412       .  A
C1922      C1923   1.400       .  A
C1922     Br1938   1.921       .  S
C1923      C1924   1.403       .  A
C1923      H1927   1.086       .  S
C1924      C1928   1.489       .  S
C1924      C1925   1.409       .  A
C1925      C1926   1.403       .  A
C1925     Br1937   1.920       .  S
C1926      H1929   1.084       .  S
C1928      C1930   1.407       .  A
C1928      C1934   1.412       .  A
C1930      C1931   1.401       .  A
C1930      H1935   1.084       .  S
C1931      C1932   1.406       .  A
C1931     Br1939   1.917       .  S
C1932      C1933   1.404       .  A
C1933      C1934   1.400       .  A
C1933      H1936   1.084       .  S
C1934     Br1940   1.920       .  S
C1941      C1942   1.408       .  A
C1941      C1946   1.404       .  A
C1942      C1943   1.400       .  A
C1942     Br1958   1.918       .  S
C1943      C1944   1.402       .  A
C1943      H1947   1.083       .  S
C1944      C1948   1.474       .  S
C1944      C1945   1.407       .  A
C1945      C1946   1.397       .  A
C1945     Br1957   1.920       .  S
C1946      H1949   1.083       .  S
C1948      C1950   1.397       .  A
C1948      C1954   1.410       .  A
C1950      C1951   1.396       .  A
C1950      H1955   1.085       .  S
C1951      C1952   1.417       .  A
C1951     Br1959   1.923       .  S
C1952      C1953   1.403       .  A
C1953      C1954   1.399       .  A
C1953      H1956   1.084       .  S
C1954     Br1960   1.919       .  S
C1961      C1962   1.408       .  A
C1961      C1966   1.401       .  A
C1962      C1963   1.400       .  A
C1962     Br1978   1.918   1_455  S
C1963      C1964   1.402       .  A
C1963      H1967   1.083       .  S
C1964      C1968   1.475       .  S
C1964      C1965   1.408       .  A
C1965      C1966   1.397       .  A
C1965     Br1977   1.919       .  S
C1966      H1969   1.083       .  S
C1968      C1970   1.398       .  A
C1968      C1974   1.410   1_556  A
C1970      C1971   1.399   1_556  A
C1970      H1975   1.085       .  S
C1971      C1972   1.414       .  A
C1971     Br1979   1.920       .  S
C1972      C1973   1.402       .  A
C1973      C1974   1.400       .  A
C1973      H1976   1.085       .  S
C1974     Br1980   1.920       .  S
C1981      C1982   1.412       .  A
C1981      C1986   1.401       .  A
C1982      C1983   1.401       .  A
C1982     Br1998   1.920       .  S
C1983      C1984   1.401       .  A
C1983      H1987   1.084       .  S
C1984      C1988   1.480       .  S
C1984      C1985   1.410       .  A
C1985      C1986   1.401       .  A
C1985     Br1997   1.919       .  S
C1986      H1989   1.084       .  S
C1988      C1990   1.404       .  A
C1988      C1994   1.407       .  A
C1990      C1991   1.402       .  A
C1990      H1995   1.083       .  S
C1991      C1992   1.408       .  A
C1991     Br1999   1.918       .  S
C1992      C1993   1.404       .  A
C1993      C1994   1.398       .  A
C1993      H1996   1.084   1_565  S
C1994     Br2000   1.918   1_565  S
C2001      C2002   1.422       .  A
C2001      C2006   1.406       .  A
C2002      C2003   1.398       .  A
C2002     Br2018   1.924       .  S
C2003      C2004   1.397       .  A
C2003      H2007   1.085       .  S
C2004      C2008   1.476       .  S
C2004      C2005   1.408       .  A
C2005      C2006   1.399       .  A
C2005     Br2017   1.919       .  S
C2006      H2009   1.084       .  S
C2008      C2010   1.400       .  A
C2008      C2014   1.409       .  A
C2010      C2011   1.397       .  A
C2010      H2015   1.083       .  S
C2011      C2012   1.408       .  A
C2011     Br2019   1.919       .  S
C2012      C2013   1.403       .  A
C2013      C2014   1.402       .  A
C2013      H2016   1.083       .  S
C2014     Br2020   1.918       .  S
C2021      C2022   1.416       .  A
C2021      C2026   1.411       .  A
C2022      C2023   1.401       .  A
C2022     Br2038   1.921       .  S
C2023      C2024   1.402   1_545  A
C2023      H2027   1.083       .  S
C2024      C2028   1.474       .  S
C2024      C2025   1.401       .  A
C2025      C2026   1.396   1_565  A
C2025     Br2037   1.918       .  S
C2026      H2029   1.083       .  S
C2028      C2030   1.402       .  A
C2028      C2034   1.406       .  A
C2030      C2031   1.397       .  A
C2030      H2035   1.083       .  S
C2031      C2032   1.407       .  A
C2031     Br2039   1.919       .  S
C2032      C2033   1.404       .  A
C2033      C2034   1.400       .  A
C2033      H2036   1.083   1_554  S
C2034     Br2040   1.917   1_554  S
C2041      C2042   1.408       .  A
C2041      C2046   1.406       .  A
C2042      C2043   1.400       .  A
C2042     Br2058   1.917       .  S
C2043      C2044   1.403       .  A
C2043      H2047   1.083       .  S
C2044      C2048   1.477       .  S
C2044      C2045   1.407       .  A
C2045      C2046   1.396       .  A
C2045     Br2057   1.920       .  S
C2046      H2049   1.084       .  S
C2048      C2050   1.405       .  A
C2048      C2054   1.403       .  A
C2050      C2051   1.401       .  A
C2050      H2055   1.084       .  S
C2051      C2052   1.412       .  A
C2051     Br2059   1.919       .  S
C2052      C2053   1.409       .  A
C2053      C2054   1.396       .  A
C2053      H2056   1.084       .  S
C2054     Br2060   1.919       .  S
C2061      C2062   1.421       .  A
C2061      C2066   1.406       .  A
C2062      C2063   1.398       .  A
C2062     Br2078   1.924       .  S
C2063      C2064   1.396       .  A
C2063      H2067   1.085   1_455  S
C2064      C2068   1.479   1_455  S
C2064      C2065   1.409       .  A
C2065      C2066   1.403       .  A
C2065     Br2077   1.918       .  S
C2066      H2069   1.085       .  S
C2068      C2070   1.403       .  A
C2068      C2074   1.407       .  A
C2070      C2071   1.402       .  A
C2070      H2075   1.083       .  S
C2071      C2072   1.408       .  A
C2071     Br2079   1.917   1_565  S
C2072      C2073   1.404       .  A
C2073      C2074   1.399       .  A
C2073      H2076   1.083       .  S
C2074     Br2080   1.919       .  S
C2081      C2082   1.409       .  A
C2081      C2086   1.406       .  A
C2082      C2083   1.403       .  A
C2082     Br2098   1.918       .  S
C2083      C2084   1.406       .  A
C2083      H2087   1.083       .  S
C2084      C2088   1.490   1_655  S
C2084      C2085   1.410       .  A
C2085      C2086   1.403       .  A
C2085     Br2097   1.919   1_545  S
C2086      H2089   1.083   1_545  S
C2088      C2090   1.406       .  A
C2088      C2094   1.405       .  A
C2090      C2091   1.406       .  A
C2090      H2095   1.082       .  S
C2091      C2092   1.417       .  A
C2091     Br2099   1.921       .  S
C2092      C2093   1.412       .  A
C2093      C2094   1.398       .  A
C2093      H2096   1.082       .  S
C2094     Br2100   1.919   1_455  S
C2101      C2102   1.407       .  A
C2101      C2106   1.404   1_565  A
C2102      C2103   1.399       .  A
C2102     Br2118   1.918       .  S
C2103      C2104   1.403       .  A
C2103      H2107   1.084       .  S
C2104      C2108   1.478       .  S
C2104      C2105   1.407       .  A
C2105      C2106   1.399   1_565  A
C2105     Br2117   1.917   1_565  S
C2106      H2109   1.084       .  S
C2108      C2110   1.401       .  A
C2108      C2114   1.404       .  A
C2110      C2111   1.400       .  A
C2110      H2115   1.085       .  S
C2111      C2112   1.415       .  A
C2111     Br2119   1.920       .  S
C2112      C2113   1.410       .  A
C2113      C2114   1.400       .  A
C2113      H2116   1.083       .  S
C2114     Br2120   1.918       .  S
C2121      C2122   1.409       .  A
C2121      C2126   1.404       .  A
C2122      C2123   1.395       .  A
C2122     Br2138   1.920       .  S
C2123      C2124   1.401       .  A
C2123      H2127   1.084       .  S
C2124      C2128   1.479       .  S
C2124      C2125   1.409       .  A
C2125      C2126   1.403       .  A
C2125     Br2137   1.916   1_556  S
C2126      H2129   1.084   1_556  S
C2128      C2130   1.404   1_565  A
C2128      C2134   1.401       .  A
C2130      C2131   1.405       .  A
C2130      H2135   1.082       .  S
C2131      C2132   1.418       .  A
C2131     Br2139   1.920       .  S
C2132      C2133   1.414       .  A
C2133      C2134   1.396   1_545  A
C2133      H2136   1.082       .  S
C2134     Br2140   1.920       .  S
C2141      C2142   1.418       .  A
C2141      C2146   1.411       .  A
C2142      C2143   1.403       .  A
C2142     Br2158   1.922       .  S
C2143      C2144   1.403       .  A
C2143      H2147   1.084       .  S
C2144      C2148   1.479       .  S
C2144      C2145   1.402       .  A
C2145      C2146   1.395       .  A
C2145     Br2157   1.919       .  S
C2146      H2149   1.084       .  S
C2148      C2150   1.403       .  A
C2148      C2154   1.408       .  A
C2150      C2151   1.400       .  A
C2150      H2155   1.083       .  S
C2151      C2152   1.408       .  A
C2151     Br2159   1.918   1_556  S
C2152      C2153   1.404       .  A
C2153      C2154   1.400       .  A
C2153      H2156   1.083       .  S
C2154     Br2160   1.919       .  S
C2161      C2162   1.419       .  A
C2161      C2166   1.407       .  A
C2162      C2163   1.402   1_556  A
C2162     Br2178   1.921       .  S
C2163      C2164   1.400       .  A
C2163      H2167   1.085       .  S
C2164      C2168   1.488       .  S
C2164      C2165   1.410   1_554  A
C2165      C2166   1.404       .  A
C2165     Br2177   1.918       .  S
C2166      H2169   1.085       .  S
C2168      C2170   1.402       .  A
C2168      C2174   1.411       .  A
C2170      C2171   1.401       .  A
C2170      H2175   1.083       .  S
C2171      C2172   1.412       .  A
C2171     Br2179   1.919       .  S
C2172      C2173   1.404       .  A
C2173      C2174   1.405       .  A
C2173      H2176   1.083       .  S
C2174     Br2180   1.917       .  S
C2181      C2182   1.422       .  A
C2181      C2186   1.407       .  A
C2182      C2183   1.403       .  A
C2182     Br2198   1.923       .  S
C2183      C2184   1.400       .  A
C2183      H2187   1.085       .  S
C2184      C2188   1.485       .  S
C2184      C2185   1.410       .  A
C2185      C2186   1.401       .  A
C2185     Br2197   1.920       .  S
C2186      H2189   1.083       .  S
C2188      C2190   1.404       .  A
C2188      C2194   1.410       .  A
C2190      C2191   1.402       .  A
C2190      H2195   1.083       .  S
C2191      C2192   1.408       .  A
C2191     Br2199   1.917       .  S
C2192      C2193   1.403       .  A
C2193      C2194   1.400       .  A
C2193      H2196   1.083   1_545  S
C2194     Br2200   1.919       .  S
C2201      C2202   1.418       .  A
C2201      C2206   1.412       .  A
C2202      C2203   1.402       .  A
C2202     Br2218   1.922       .  S
C2203      C2204   1.402       .  A
C2203      H2207   1.083       .  S
C2204      C2208   1.478       .  S
C2204      C2205   1.401       .  A
C2205      C2206   1.398       .  A
C2205     Br2217   1.917       .  S
C2206      H2209   1.082       .  S
C2208      C2210   1.401       .  A
C2208      C2214   1.407       .  A
C2210      C2211   1.398       .  A
C2210      H2215   1.084       .  S
C2211      C2212   1.409       .  A
C2211     Br2219   1.919       .  S
C2212      C2213   1.404       .  A
C2213      C2214   1.403       .  A
C2213      H2216   1.084   1_545  S
C2214     Br2220   1.917       .  S
C2221      C2222   1.410       .  A
C2221      C2226   1.404       .  A
C2222      C2223   1.406       .  A
C2222     Br2238   1.918       .  S
C2223      C2224   1.405       .  A
C2223      H2227   1.083       .  S
C2224      C2228   1.489       .  S
C2224      C2225   1.410       .  A
C2225      C2226   1.400       .  A
C2225     Br2237   1.919       .  S
C2226      H2229   1.084       .  S
C2228      C2230   1.402       .  A
C2228      C2234   1.411       .  A
C2230      C2231   1.405       .  A
C2230      H2235   1.085       .  S
C2231      C2232   1.417       .  A
C2231     Br2239   1.921       .  S
C2232      C2233   1.404       .  A
C2233      C2234   1.403       .  A
C2233      H2236   1.084       .  S
C2234     Br2240   1.919       .  S
C2241      C2242   1.420       .  A
C2241      C2246   1.407       .  A
C2242      C2243   1.404       .  A
C2242     Br2258   1.922       .  S
C2243      C2244   1.400       .  A
C2243      H2247   1.085       .  S
C2244      C2248   1.483       .  S
C2244      C2245   1.407       .  A
C2245      C2246   1.400       .  A
C2245     Br2257   1.919       .  S
C2246      H2249   1.084       .  S
C2248      C2250   1.403       .  A
C2248      C2254   1.409       .  A
C2250      C2251   1.402       .  A
C2250      H2255   1.082       .  S
C2251      C2252   1.409       .  A
C2251     Br2259   1.918       .  S
C2252      C2253   1.403       .  A
C2253      C2254   1.401       .  A
C2253      H2256   1.083       .  S
C2254     Br2260   1.918       .  S
C2261      C2262   1.414       .  A
C2261      C2266   1.410       .  A
C2262      C2263   1.404       .  A
C2262     Br2278   1.920       .  S
C2263      C2264   1.406   1_556  A
C2263      H2267   1.084       .  S
C2264      C2268   1.484       .  S
C2264      C2265   1.404       .  A
C2265      C2266   1.397   1_554  A
C2265     Br2277   1.919       .  S
C2266      H2269   1.084       .  S
C2268      C2270   1.405       .  A
C2268      C2274   1.407       .  A
C2270      C2271   1.401       .  A
C2270      H2275   1.083       .  S
C2271      C2272   1.409       .  A
C2271     Br2279   1.918       .  S
C2272      C2273   1.408       .  A
C2273      C2274   1.401       .  A
C2273      H2276   1.084       .  S
C2274     Br2280   1.919       .  S
C2281      C2282   1.418       .  A
C2281      C2286   1.411       .  A
C2282      C2283   1.400       .  A
C2282     Br2298   1.922       .  S
C2283      C2284   1.401       .  A
C2283      H2287   1.083       .  S
C2284      C2288   1.474       .  S
C2284      C2285   1.401       .  A
C2285      C2286   1.396       .  A
C2285     Br2297   1.918       .  S
C2286      H2289   1.083       .  S
C2288      C2290   1.403       .  A
C2288      C2294   1.406       .  A
C2290      C2291   1.400       .  A
C2290      H2295   1.083       .  S
C2291      C2292   1.408       .  A
C2291     Br2299   1.918       .  S
C2292      C2293   1.404       .  A
C2293      C2294   1.396       .  A
C2293      H2296   1.083       .  S
C2294     Br2300   1.919       .  S
C2301      C2302   1.420       .  A
C2301      C2306   1.412       .  A
C2302      C2303   1.400       .  A
C2302     Br2318   1.923       .  S
C2303      C2304   1.401       .  A
C2303      H2307   1.084       .  S
C2304      C2308   1.477       .  S
C2304      C2305   1.402       .  A
C2305      C2306   1.399       .  A
C2305     Br2317   1.917       .  S
C2306      H2309   1.083       .  S
C2308      C2310   1.404       .  A
C2308      C2314   1.405       .  A
C2310      C2311   1.401       .  A
C2310      H2315   1.084       .  S
C2311      C2312   1.408       .  A
C2311     Br2319   1.917       .  S
C2312      C2313   1.407       .  A
C2313      C2314   1.397       .  A
C2313      H2316   1.084       .  S
C2314     Br2320   1.918       .  S
C2321      C2322   1.407       .  A
C2321      C2326   1.404       .  A
C2322      C2323   1.398       .  A
C2322     Br2338   1.918       .  S
C2323      C2324   1.403       .  A
C2323      H2327   1.083       .  S
C2324      C2328   1.482       .  S
C2324      C2325   1.410       .  A
C2325      C2326   1.403       .  A
C2325     Br2337   1.918       .  S
C2326      H2329   1.083       .  S
C2328      C2330   1.398       .  A
C2328      C2334   1.408       .  A
C2330      C2331   1.401       .  A
C2330      H2335   1.084       .  S
C2331      C2332   1.426       .  A
C2331     Br2339   1.925       .  S
C2332      C2333   1.407       .  A
C2333      C2334   1.400       .  A
C2333      H2336   1.084       .  S
C2334     Br2340   1.919       .  S
C2341      C2342   1.411       .  A
C2341      C2346   1.408       .  A
C2342      C2343   1.402       .  A
C2342     Br2358   1.919       .  S
C2343      C2344   1.406       .  A
C2343      H2347   1.083       .  S
C2344      C2348   1.483       .  S
C2344      C2345   1.406       .  A
C2345      C2346   1.397       .  A
C2345     Br2357   1.920       .  S
C2346      H2349   1.083       .  S
C2348      C2350   1.405       .  A
C2348      C2354   1.410   1_556  A
C2350      C2351   1.398       .  A
C2350      H2355   1.084       .  S
C2351      C2352   1.406       .  A
C2351     Br2359   1.918       .  S
C2352      C2353   1.403   1_556  A
C2353      C2354   1.400       .  A
C2353      H2356   1.084       .  S
C2354     Br2360   1.918       .  S
C2361      C2362   1.407   1_455  A
C2361      C2366   1.405       .  A
C2362      C2363   1.399       .  A
C2362     Br2378   1.919       .  S
C2363      C2364   1.406       .  A
C2363      H2367   1.083       .  S
C2364      C2368   1.489   1_556  S
C2364      C2365   1.411   1_655  A
C2365      C2366   1.401       .  A
C2365     Br2377   1.919       .  S
C2366      H2369   1.083       .  S
C2368      C2370   1.404       .  A
C2368      C2374   1.408       .  A
C2370      C2371   1.403       .  A
C2370      H2375   1.083       .  S
C2371      C2372   1.419       .  A
C2371     Br2379   1.923       .  S
C2372      C2373   1.408       .  A
C2373      C2374   1.399       .  A
C2373      H2376   1.083       .  S
C2374     Br2380   1.920   1_554  S
C2381      C2382   1.409       .  A
C2381      C2386   1.404       .  A
C2382      C2383   1.404       .  A
C2382     Br2398   1.919   1_655  S
C2383      C2384   1.406       .  A
C2383      H2387   1.083       .  S
C2384      C2388   1.490       .  S
C2384      C2385   1.411       .  A
C2385      C2386   1.401       .  A
C2385     Br2397   1.921       .  S
C2386      H2389   1.083       .  S
C2388      C2390   1.404       .  A
C2388      C2394   1.407       .  A
C2390      C2391   1.404       .  A
C2390      H2395   1.085       .  S
C2391      C2392   1.420       .  A
C2391     Br2399   1.923       .  S
C2392      C2393   1.409       .  A
C2393      C2394   1.400       .  A
C2393      H2396   1.084       .  S
C2394     Br2400   1.919       .  S
C2401      C2402   1.418       .  A
C2401      C2406   1.405       .  A
C2402      C2403   1.399   1_655  A
C2402     Br2418   1.922   1_655  S
C2403      C2404   1.400       .  A
C2403      H2407   1.085       .  S
C2404      C2408   1.486       .  S
C2404      C2405   1.413   1_455  A
C2405      C2406   1.403       .  A
C2405     Br2417   1.920       .  S
C2406      H2409   1.085       .  S
C2408      C2410   1.403       .  A
C2408      C2414   1.413       .  A
C2410      C2411   1.399       .  A
C2410      H2415   1.083       .  S
C2411      C2412   1.411       .  A
C2411     Br2419   1.920       .  S
C2412      C2413   1.402       .  A
C2413      C2414   1.402       .  A
C2413      H2416   1.084       .  S
C2414     Br2420   1.919       .  S
C2421      C2422   1.423       .  A
C2421      C2426   1.410       .  A
C2422      C2423   1.403       .  A
C2422     Br2438   1.922       .  S
C2423      C2424   1.399       .  A
C2423      H2427   1.085       .  S
C2424      C2428   1.483       .  S
C2424      C2425   1.407       .  A
C2425      C2426   1.401       .  A
C2425     Br2437   1.919       .  S
C2426      H2429   1.084       .  S
C2428      C2430   1.400       .  A
C2428      C2434   1.411       .  A
C2430      C2431   1.398       .  A
C2430      H2435   1.083       .  S
C2431      C2432   1.411       .  A
C2431     Br2439   1.920       .  S
C2432      C2433   1.405       .  A
C2433      C2434   1.406       .  A
C2433      H2436   1.083       .  S
C2434     Br2440   1.918       .  S
C2441      C2442   1.408       .  A
C2441      C2446   1.404       .  A
C2442      C2443   1.402       .  A
C2442     Br2458   1.919       .  S
C2443      C2444   1.403       .  A
C2443      H2447   1.083       .  S
C2444      C2448   1.481       .  S
C2444      C2445   1.407       .  A
C2445      C2446   1.401       .  A
C2445     Br2457   1.918   1_554  S
C2446      H2449   1.084   1_554  S
C2448      C2450   1.404       .  A
C2448      C2454   1.404       .  A
C2450      C2451   1.404       .  A
C2450      H2455   1.083       .  S
C2451      C2452   1.414       .  A
C2451     Br2459   1.920       .  S
C2452      C2453   1.407       .  A
C2453      C2454   1.400       .  A
C2453      H2456   1.083       .  S
C2454     Br2460   1.917       .  S
C2461      C2462   1.414       .  A
C2461      C2466   1.411       .  A
C2462      C2463   1.407       .  A
C2462     Br2478   1.917       .  S
C2463      C2464   1.405       .  A
C2463      H2467   1.085       .  S
C2464      C2468   1.481       .  S
C2464      C2465   1.404       .  A
C2465      C2466   1.395       .  A
C2465     Br2477   1.921       .  S
C2466      H2469   1.085       .  S
C2468      C2470   1.401       .  A
C2468      C2474   1.404       .  A
C2470      C2471   1.403       .  A
C2470      H2475   1.085       .  S
C2471      C2472   1.419       .  A
C2471     Br2479   1.922       .  S
C2472      C2473   1.410       .  A
C2473      C2474   1.399       .  A
C2473      H2476   1.083       .  S
C2474     Br2480   1.918       .  S
C2481      C2482   1.407       .  A
C2481      C2486   1.402       .  A
C2482      C2483   1.399       .  A
C2482     Br2498   1.918   1_655  S
C2483      C2484   1.404       .  A
C2483      H2487   1.083       .  S
C2484      C2488   1.479       .  S
C2484      C2485   1.409       .  A
C2485      C2486   1.399       .  A
C2485     Br2497   1.919       .  S
C2486      H2489   1.083       .  S
C2488      C2490   1.402       .  A
C2488      C2494   1.405       .  A
C2490      C2491   1.400       .  A
C2490      H2495   1.083       .  S
C2491      C2492   1.415       .  A
C2491     Br2499   1.921       .  S
C2492      C2493   1.410       .  A
C2493      C2494   1.399       .  A
C2493      H2496   1.083       .  S
C2494     Br2500   1.919       .  S
C2501      C2502   1.422       .  A
C2501      C2506   1.410       .  A
C2502      C2503   1.405       .  A
C2502     Br2518   1.922       .  S
C2503      C2504   1.400       .  A
C2503      H2507   1.083       .  S
C2504      C2508   1.485       .  S
C2504      C2505   1.407       .  A
C2505      C2506   1.400       .  A
C2505     Br2517   1.920       .  S
C2506      H2509   1.083       .  S
C2508      C2510   1.402   1_655  A
C2508      C2514   1.411       .  A
C2510      C2511   1.402       .  A
C2510      H2515   1.083       .  S
C2511      C2512   1.411   1_455  A
C2511     Br2519   1.919       .  S
C2512      C2513   1.402       .  A
C2513      C2514   1.402       .  A
C2513      H2516   1.083       .  S
C2514     Br2520   1.919       .  S
C2521      C2522   1.418       .  A
C2521      C2526   1.408       .  A
C2522      C2523   1.402   1_655  A
C2522     Br2538   1.922       .  S
C2523      C2524   1.401       .  A
C2523      H2527   1.083       .  S
C2524      C2528   1.483       .  S
C2524      C2525   1.409   1_455  A
C2525      C2526   1.400       .  A
C2525     Br2537   1.921       .  S
C2526      H2529   1.083       .  S
C2528      C2530   1.401       .  A
C2528      C2534   1.411       .  A
C2530      C2531   1.399       .  A
C2530      H2535   1.083       .  S
C2531      C2532   1.411       .  A
C2531     Br2539   1.919       .  S
C2532      C2533   1.403       .  A
C2533      C2534   1.403       .  A
C2533      H2536   1.083       .  S
C2534     Br2540   1.919       .  S
C2541      C2542   1.418       .  A
C2541      C2546   1.411       .  A
C2542      C2543   1.401       .  A
C2542     Br2558   1.923       .  S
C2543      C2544   1.401       .  A
C2543      H2547   1.083       .  S
C2544      C2548   1.482       .  S
C2544      C2545   1.405       .  A
C2545      C2546   1.403       .  A
C2545     Br2557   1.917       .  S
C2546      H2549   1.083       .  S
C2548      C2550   1.406       .  A
C2548      C2554   1.405       .  A
C2550      C2551   1.406       .  A
C2550      H2555   1.083       .  S
C2551      C2552   1.411       .  A
C2551     Br2559   1.918       .  S
C2552      C2553   1.408       .  A
C2553      C2554   1.397       .  A
C2553      H2556   1.083       .  S
C2554     Br2560   1.919       .  S
C2561      C2562   1.417       .  A
C2561      C2566   1.413       .  A
C2562      C2563   1.404       .  A
C2562     Br2578   1.921       .  S
C2563      C2564   1.403       .  A
C2563      H2567   1.082       .  S
C2564      C2568   1.484       .  S
C2564      C2565   1.403       .  A
C2565      C2566   1.402       .  A
C2565     Br2577   1.917       .  S
C2566      H2569   1.082       .  S
C2568      C2570   1.405       .  A
C2568      C2574   1.406       .  A
C2570      C2571   1.405       .  A
C2570      H2575   1.083       .  S
C2571      C2572   1.409       .  A
C2571     Br2579   1.917       .  S
C2572      C2573   1.405       .  A
C2573      C2574   1.400       .  A
C2573      H2576   1.083       .  S
C2574     Br2580   1.918       .  S
C2581      C2582   1.411       .  A
C2581      C2586   1.405       .  A
C2582      C2583   1.401       .  A
C2582     Br2598   1.918       .  S
C2583      C2584   1.401       .  A
C2583      H2587   1.083       .  S
C2584      C2588   1.483       .  S
C2584      C2585   1.409       .  A
C2585      C2586   1.404       .  A
C2585     Br2597   1.918       .  S
C2586      H2589   1.083       .  S
C2588      C2590   1.398       .  A
C2588      C2594   1.409       .  A
C2590      C2591   1.401       .  A
C2590      H2595   1.084       .  S
C2591      C2592   1.420       .  A
C2591     Br2599   1.922       .  S
C2592      C2593   1.408       .  A
C2593      C2594   1.404       .  A
C2593      H2596   1.084       .  S
C2594     Br2600   1.919       .  S
C2601      C2602   1.407       .  A
C2601      C2606   1.403       .  A
C2602      C2603   1.401       .  A
C2602     Br2618   1.917       .  S
C2603      C2604   1.404       .  A
C2603      H2607   1.083       .  S
C2604      C2608   1.484       .  S
C2604      C2605   1.411       .  A
C2605      C2606   1.399       .  A
C2605     Br2617   1.920       .  S
C2606      H2609   1.084       .  S
C2608      C2610   1.401       .  A
C2608      C2614   1.408       .  A
C2610      C2611   1.403       .  A
C2610      H2615   1.083       .  S
C2611      C2612   1.420       .  A
C2611     Br2619   1.921       .  S
C2612      C2613   1.409       .  A
C2613      C2614   1.399       .  A
C2613      H2616   1.083       .  S
C2614     Br2620   1.921       .  S
C2621      C2622   1.422       .  A
C2621      C2626   1.408       .  A
C2622      C2623   1.400       .  A
C2622     Br2638   1.923       .  S
C2623      C2624   1.397       .  A
C2623      H2627   1.084       .  S
C2624      C2628   1.479       .  S
C2624      C2625   1.407       .  A
C2625      C2626   1.401       .  A
C2625     Br2637   1.919       .  S
C2626      H2629   1.083       .  S
C2628      C2630   1.402       .  A
C2628      C2634   1.408       .  A
C2630      C2631   1.400       .  A
C2630      H2635   1.083       .  S
C2631      C2632   1.409       .  A
C2631     Br2639   1.918       .  S
C2632      C2633   1.403       .  A
C2633      C2634   1.402       .  A
C2633      H2636   1.083       .  S
C2634     Br2640   1.918       .  S
C2641      C2642   1.414       .  A
C2641      C2646   1.410       .  A
C2642      C2643   1.402       .  A
C2642     Br2658   1.920       .  S
C2643      C2644   1.405       .  A
C2643      H2647   1.083       .  S
C2644      C2648   1.481       .  S
C2644      C2645   1.405       .  A
C2645      C2646   1.397       .  A
C2645     Br2657   1.919       .  S
C2646      H2649   1.083       .  S
C2648      C2650   1.404       .  A
C2648      C2654   1.408       .  A
C2650      C2651   1.398       .  A
C2650      H2655   1.083       .  S
C2651      C2652   1.407       .  A
C2651     Br2659   1.919       .  S
C2652      C2653   1.404       .  A
C2653      C2654   1.400       .  A
C2653      H2656   1.083       .  S
C2654     Br2660   1.918       .  S
C2661      C2662   1.411       .  A
C2661      C2666   1.404       .  A
C2662      C2663   1.399       .  A
C2662     Br2678   1.920       .  S
C2663      C2664   1.402       .  A
C2663      H2667   1.084       .  S
C2664      C2668   1.483       .  S
C2664      C2665   1.409       .  A
C2665      C2666   1.404       .  A
C2665     Br2677   1.916       .  S
C2666      H2669   1.083       .  S
C2668      C2670   1.403       .  A
C2668      C2674   1.403       .  A
C2670      C2671   1.405       .  A
C2670      H2675   1.083       .  S
C2671      C2672   1.419       .  A
C2671     Br2679   1.921       .  S
C2672      C2673   1.412       .  A
C2673      C2674   1.400       .  A
C2673      H2676   1.082       .  S
C2674     Br2680   1.918       .  S
C2681      C2682   1.409       .  A
C2681      C2686   1.402       .  A
C2682      C2683   1.401       .  A
C2682     Br2698   1.918       .  S
C2683      C2684   1.402       .  A
C2683      H2687   1.084       .  S
C2684      C2688   1.480       .  S
C2684      C2685   1.409       .  A
C2685      C2686   1.400       .  A
C2685     Br2697   1.918       .  S
C2686      H2689   1.084       .  S
C2688      C2690   1.399       .  A
C2688      C2694   1.406       .  A
C2690      C2691   1.403       .  A
C2690      H2695   1.084       .  S
C2691      C2692   1.423       .  A
C2691     Br2699   1.923       .  S
C2692      C2693   1.408       .  A
C2693      C2694   1.398       .  A
C2693      H2696   1.083       .  S
C2694     Br2700   1.919       .  S
C2701      C2702   1.417       .  A
C2701      C2706   1.413       .  A
C2702      C2703   1.405       .  A
C2702     Br2718   1.920       .  S
C2703      C2704   1.404       .  A
C2703      H2707   1.082       .  S
C2704      C2708   1.479       .  S
C2704      C2705   1.401       .  A
C2705      C2706   1.396       .  A
C2705     Br2717   1.919       .  S
C2706      H2709   1.082       .  S
C2708      C2710   1.402       .  A
C2708      C2714   1.409       .  A
C2710      C2711   1.399       .  A
C2710      H2715   1.083       .  S
C2711      C2712   1.409       .  A
C2711     Br2719   1.920       .  S
C2712      C2713   1.403       .  A
C2713      C2714   1.402       .  A
C2713      H2716   1.083       .  S
C2714     Br2720   1.918       .  S
