geometry optimzed in LAMMPS
_audit_creation_date              2020-11-30 
_audit_creation_method            'lammps2cif' 
_symmetry_space_group_name_H-M    'P1' 
_symmetry_Int_Tables_number       1 
_symmetry_cell_setting            triclinic 
loop_ 
_symmetry_equiv_pos_as_xyz 
  x,y,z 
_cell_length_a                    64.32187364 
_cell_length_b                    64.51635404372678 
_cell_length_c                    64.34074479966205 
_cell_angle_alpha                 90.21762388620434 
_cell_angle_beta                  90.04816847476181 
_cell_angle_gamma                 89.97198214701079 
loop_ 
_atom_site_label 
_atom_site_type_symbol 
_atom_site_fract_x 
_atom_site_fract_y 
_atom_site_fract_z 
_atom_site_charge 
O1          O  0.60822080  0.66665874  0.64413888    -0.78900
C2          C  0.66370960  0.66925002  0.60279426     0.82200
O3          O  0.59233937  0.62503266  0.58437574    -0.80000
O4          O  0.66021035  0.60033717  0.58983259    -0.81500
O5          O  0.65532073  0.60824444  0.66326155    -0.81300
O6          O  0.61770435  0.64504149  0.66926013    -0.79900
Zn7        Zn  0.62108210  0.65512813  0.61796789     1.55700
O8          O  0.67748433  0.61196087  0.63697326    -0.81300
Cd9        Cd  0.62768589  0.61997194  0.65176954     1.59700
Cd10       Cd  0.61040915  0.60760595  0.60520484     1.59600
O11         O  0.60503204  0.59820072  0.65616505    -0.81300
O12         O  0.62933672  0.62656674  0.62166577    -1.91800
Cd13       Cd  0.65879281  0.62285535  0.61284291     1.59900
O14         O  0.59077888  0.59110410  0.62535909    -0.81200
O15         O  0.67086916  0.65078305  0.60244711    -0.79900
C16         C  0.59007402  0.64467348  0.58312927     0.82700
C17         C  0.60866953  0.66154127  0.66325050     0.82300
O18         O  0.64538439  0.67314444  0.60929704    -0.78800
C19         C  0.67345880  0.60628536  0.65551492     0.83100
O20         O  0.59985216  0.65696150  0.59521625    -0.78900
C21         C  0.59145396  0.58895051  0.64510551     0.83300
C22         C  0.64754851  0.58675414  0.58280495     0.83600
O23         O  0.62834971  0.58666113  0.58794615    -0.81400
O24         O  0.84532746  0.60376189  0.33398860    -0.78900
C25         C  0.88744090  0.65964851  0.33306589     0.82200
O26         O  0.90856788  0.59157987  0.37452600    -0.80000
O27         O  0.89556064  0.65697376  0.40295027    -0.81500
O28         O  0.82518660  0.64693564  0.39348274    -0.81300
O29         O  0.82173504  0.60740031  0.35899170    -0.79900
Zn30       Zn  0.87135090  0.61711183  0.34577843     1.55700
O31         O  0.84892027  0.67119594  0.38687974    -0.81300
Cd32       Cd  0.83879839  0.61984623  0.38317256     1.59700
Cd33       Cd  0.88646371  0.60650828  0.39294206     1.59600
O34         O  0.83705639  0.59821160  0.40640838    -0.81300
O35         O  0.86808694  0.62417831  0.37480941    -1.91800
Cd36       Cd  0.87491583  0.65397890  0.37860052     1.59900
O37         O  0.86877000  0.58447223  0.40906751    -0.81200
O38         O  0.88767421  0.66626636  0.35177710    -0.79900
C39         C  0.90881402  0.58908611  0.35483708     0.82700
C40         C  0.82693403  0.60114139  0.34092252     0.82300
O41         O  0.87994932  0.64191010  0.32845424    -0.78800
C42         C  0.83102227  0.66581101  0.39343017     0.83100
O43         O  0.89506080  0.59717908  0.34312742    -0.78900
C44         C  0.84945568  0.58466959  0.41371924     0.83300
C45         C  0.90417085  0.64469979  0.41587031     0.83600
O46         O  0.90192417  0.62506499  0.41461122    -0.81400
O47         O  0.89904036  0.41789566  0.14786577    -0.78900
C48         C  0.85756291  0.41960422  0.09287103     0.82200
O49         O  0.83797152  0.37269257  0.15881021    -0.80000
O50         O  0.85211154  0.35087612  0.09052520    -0.81500
O51         O  0.92222082  0.35898274  0.10431227    -0.81300
O52         O  0.92424169  0.39489469  0.14223184    -0.79900
Zn53       Zn  0.87315266  0.40498482  0.13531082     1.55700
O54         O  0.89943290  0.36645452  0.07936632    -0.81300
Cd55       Cd  0.90801171  0.36959863  0.13108862     1.59700
Cd56       Cd  0.86031024  0.35644086  0.14191864     1.59600
O57         O  0.91040876  0.34696871  0.15340528    -0.81300
O58         O  0.87834546  0.37669862  0.12629433    -1.91800
Cd59       Cd  0.87289511  0.37454995  0.09593513     1.59900
O60         O  0.87808810  0.33884599  0.16279683    -0.81200
O61         O  0.86038980  0.40183304  0.08457540    -0.79900
C62         C  0.83716471  0.39189741  0.16358500     0.82700
C63         C  0.91808000  0.41242898  0.14900886     0.82300
O64         O  0.86261351  0.42315102  0.11172610    -0.78800
C65         C  0.91704971  0.35946670  0.08519177     0.83100
O66         O  0.85024337  0.40491322  0.15647624    -0.78900
C67         C  0.89776279  0.33680191  0.16469514     0.83300
C68         C  0.84328704  0.33696792  0.10143857     0.83600
O69         O  0.84521926  0.33644467  0.12119669    -0.81400
C70         C  0.74621295  0.54537840  0.00226422     0.79900
N71         N  0.73370527  0.53303905  0.99030164    -0.78400
C72         C  0.73623329  0.51206926  0.99043824     0.82300
N73         N  0.75171700  0.50377435  0.00205015    -0.78400
C74         C  0.76427064  0.51577877  0.01390078     0.82400
N75         N  0.76137907  0.53660760  0.01418112    -0.80100
C76         C  0.04699027  0.50920410  0.25102311     0.79900
N77         N  0.03574434  0.51874670  0.26630833    -0.78400
C78         C  0.01461141  0.51790627  0.26599721     0.82300
N79         N  0.00489915  0.50807722  0.25010093    -0.78400
C80         C  0.01579556  0.49867363  0.23479724     0.82400
N81         N  0.03688949  0.49893006  0.23543720    -0.80100
O82         O  0.62361130  0.32439862  0.84206859    -0.78900
C83         C  0.68015758  0.32423246  0.88236041     0.82200
O84         O  0.60874095  0.36259138  0.90554144    -0.80000
O85         O  0.67438408  0.39267142  0.89410326    -0.81500
O86         O  0.66364639  0.38805851  0.82366027    -0.81300
O87         O  0.62715743  0.34907239  0.81825039    -0.79900
Zn88       Zn  0.63657023  0.33598033  0.86813931     1.55700
O89         O  0.68860801  0.38180538  0.84684956    -0.81300
Cd90       Cd  0.63753302  0.37385393  0.83612321     1.59700
Cd91       Cd  0.62384794  0.38219649  0.88442871     1.59600
O92         O  0.61360525  0.39493088  0.83497841    -0.81300
O93         O  0.64228716  0.36524256  0.86534838    -1.91800
Cd94       Cd  0.67216598  0.36988996  0.87185622     1.59900
O95         O  0.60118176  0.39818308  0.86717816    -0.81200
O96         O  0.68628429  0.34303398  0.88231680    -0.79900
C97         C  0.60746287  0.34281767  0.90541444     0.82700
C98         C  0.62107614  0.33103663  0.82359970     0.82300
O99         O  0.66205938  0.31926789  0.87598406    -0.78800
C100        C  0.68249139  0.38956012  0.82970909     0.83100
O101        O  0.61674210  0.33196298  0.89168336    -0.78900
C102        C  0.60033633  0.40221423  0.84775755     0.83300
C103        C  0.66189742  0.40526596  0.90294557     0.83600
O104        O  0.64218593  0.40386965  0.90059971    -0.81400
O105        O  0.42075576  0.13560745  0.89959685    -0.78900
C106        C  0.41746074  0.07970422  0.85843061     0.82200
O107        O  0.37739976  0.15226215  0.84006543    -0.80000
O108        O  0.34936896  0.08609662  0.84950436    -0.81500
O109        O  0.35886340  0.09515311  0.92210767    -0.81300
O110        O  0.39835828  0.13049926  0.92533554    -0.79900
Zn111      Zn  0.40675854  0.12313477  0.87424060     1.55700
O112        O  0.36162665  0.07123988  0.89714483    -0.81300
Cd113      Cd  0.37198962  0.12140126  0.90898039     1.59700
Cd114      Cd  0.35901276  0.13598174  0.86151237     1.59600
O115        O  0.35175016  0.14576223  0.91242392    -0.81300
O116        O  0.37764796  0.11731508  0.87885019    -1.91800
Cd117      Cd  0.37238008  0.08772370  0.87168612     1.59900
O118        O  0.34351975  0.15744688  0.88089030    -0.81200
O119        O  0.39871622  0.07343027  0.85977312    -0.79900
C120        C  0.39720579  0.15328227  0.83873251     0.82700
C121        C  0.41587169  0.13698426  0.91875772     0.82300
O122        O  0.42267353  0.09781063  0.86448795    -0.78800
C123        C  0.35630137  0.07665869  0.91546929     0.83100
O124        O  0.40893792  0.14333163  0.85112441    -0.78900
C125        C  0.34238841  0.15865525  0.90072344     0.83300
C126        C  0.33665985  0.09861942  0.84094542     0.83600
O127        O  0.33728452  0.11813471  0.84456476    -0.81400
C128        C  0.51150020  0.24797207  0.04104720     0.79900
N129        N  0.52371513  0.26065437  0.02921913    -0.78400
C130        C  0.52514417  0.25756171  0.00828274     0.82300
N131        N  0.51462435  0.24156474  0.99952149    -0.78400
C132        C  0.50242562  0.22893637  0.01093096     0.82400
N133        N  0.50068761  0.23229886  0.03169607    -0.80100
C134        C  0.49604144  0.24787183  0.70681367     0.79900
N135        N  0.48111458  0.23805557  0.71818323    -0.78400
C136        C  0.48183803  0.23837879  0.73931559     0.82300
N137        N  0.49774400  0.24834198  0.74891732    -0.78400
C138        C  0.51284524  0.25800404  0.73796461     0.82400
N139        N  0.51189084  0.25777749  0.71684362    -0.80100
C140        C  0.55047618  0.99228846  0.75268993     0.79900
N141        N  0.53922191  0.00245213  0.76754266    -0.78400
C142        C  0.51807417  0.00210771  0.76698587     0.82300
N143        N  0.50825371  0.99210687  0.75124989    -0.78400
C144        C  0.51922881  0.98221178  0.73623749     0.82400
N145        N  0.54032129  0.98207041  0.73711895    -0.80100
C146        C  0.94896216  0.00332863  0.26205427     0.79900
N147        N  0.95992640  0.99170359  0.27603622    -0.78400
C148        C  0.98111779  0.99204983  0.27591966     0.82300
N149        N  0.99104411  0.00374843  0.26161164    -0.78400
C150        C  0.98054516  0.01515509  0.24749089     0.82400
N151        N  0.95943293  0.01493583  0.24778413    -0.80100
C152        C  0.24721276  0.28919223  0.00228059     0.79900
N153        N  0.23763360  0.27881012  0.01801378    -0.78400
C154        C  0.23842388  0.25779446  0.01886634     0.82300
N155        N  0.24843443  0.24729080  0.00359505    -0.78400
C156        C  0.25784224  0.25722581  0.98763198     0.82400
N157        N  0.25741956  0.27832352  0.98714338    -0.80100
C158        C  0.25098211  0.94825328  0.00835851     0.79900
N159        N  0.23597009  0.95941097  0.01838067    -0.78400
C160        C  0.23640943  0.98049224  0.01814709     0.82300
N161        N  0.25221727  0.99029507  0.00833072    -0.78400
C162        C  0.26733471  0.97947011  0.99845680     0.82400
N163        N  0.26653727  0.95842451  0.99822750    -0.80100
C164        C  0.28908344  0.99607292  0.24795037     0.79900
N165        N  0.27741997  0.01142089  0.23922873    -0.78400
C166        C  0.25631221  0.01072913  0.24025326     0.82300
N167        N  0.24700188  0.99433083  0.24950349    -0.78400
C168        C  0.25836764  0.97893510  0.25812628     0.82400
N169        N  0.27943012  0.97995224  0.25758731    -0.80100
C170        C  0.00394431  0.25454923  0.95328752     0.79900
N171        N  0.01287191  0.23853232  0.96369652    -0.78400
C172        C  0.01333737  0.23842865  0.98475435     0.82300
N173        N  0.00525232  0.25466099  0.99549909    -0.78400
C174        C  0.99658946  0.27092393  0.98533752     0.82400
N175        N  0.99561704  0.27066805  0.96421363    -0.80100
C176        C  0.99902381  0.24926879  0.29731466     0.79900
N177        N  0.98208000  0.25609597  0.28658277    -0.78400
C178        C  0.98239486  0.25654731  0.26547038     0.82300
N179        N  0.99971646  0.25021322  0.25529163    -0.78400
C180        C  0.01671178  0.24340951  0.26570451     0.82400
N181        N  0.01633063  0.24290018  0.28683254    -0.80100
O182        O  0.09194091  0.08082329  0.14397210    -0.78900
C183        C  0.13901342  0.07910165  0.09163631     0.82200
O184        O  0.15600662  0.11969227  0.15998449    -0.80000
O185        O  0.14450552  0.14837394  0.09292591    -0.81500
O186        O  0.07548973  0.14070479  0.10082815    -0.81300
O187        O  0.06947067  0.10683288  0.14043062    -0.79900
Zn188      Zn  0.11926111  0.09179235  0.13270010     1.55700
O189        O  0.09915687  0.13184057  0.07717982    -0.81300
Cd190      Cd  0.08773492  0.13034375  0.12872767     1.59700
Cd191      Cd  0.13568708  0.13868602  0.14325521     1.59600
O192        O  0.08620168  0.15369236  0.15066020    -0.81300
O193        O  0.11688742  0.12087006  0.12547890    -1.91800
Cd194      Cd  0.12430121  0.12405884  0.09580857     1.59900
O195        O  0.11801869  0.15620281  0.16423066    -0.81200
O196        O  0.13872055  0.09767688  0.08496811    -0.79900
C197        C  0.15494076  0.10022820  0.16343801     0.82700
C198        C  0.07376760  0.08847800  0.14629124     0.82300
O199        O  0.13021141  0.07409523  0.10866621    -0.78800
C200        C  0.08160023  0.13967545  0.08198231     0.83100
O201        O  0.14109266  0.08890530  0.15488320    -0.78900
C202        C  0.09878864  0.16117798  0.16405532     0.83300
C203        C  0.15392683  0.16092430  0.10500748     0.83600
O204        O  0.15246552  0.15952566  0.12476222    -0.81400
O205        O  0.41811614  0.85341503  0.59888967    -0.78900
C206        C  0.41944916  0.90758683  0.64283265     0.82200
O207        O  0.37768375  0.83979785  0.66245713    -0.80000
O208        O  0.35067957  0.90594322  0.65249429    -0.81500
O209        O  0.35635603  0.89597969  0.58153888    -0.81300
O210        O  0.39396439  0.85924910  0.57487539    -0.79900
Zn211      Zn  0.40636624  0.86537587  0.62571512     1.55700
O212        O  0.36319660  0.92016244  0.60540964    -0.81300
Cd213      Cd  0.36931504  0.86918832  0.59335370     1.59700
Cd214      Cd  0.35904311  0.85585540  0.64152487     1.59600
O215        O  0.34766600  0.84587852  0.59160925    -0.81300
O216        O  0.37739492  0.87308074  0.62289947    -1.91800
Cd217      Cd  0.37366867  0.90277007  0.63036188     1.59900
O218        O  0.34267418  0.83409627  0.62379459    -0.81200
O219        O  0.40097991  0.91475720  0.64217070    -0.79900
C220        C  0.39717838  0.83611512  0.66191566     0.82700
C221        C  0.41180667  0.85238369  0.58009520     0.82300
O222        O  0.42384478  0.88960058  0.63578849    -0.78800
C223        C  0.35557896  0.91471244  0.58792244     0.83100
O224        O  0.40892351  0.84406143  0.64813398    -0.78900
C225        C  0.33944088  0.83309965  0.60422647     0.83300
C226        C  0.33749487  0.89401804  0.66115408     0.83600
O227        O  0.33781667  0.87441928  0.65814048    -0.81400
O228        O  0.10574150  0.82090688  0.35150674    -0.78900
C229        C  0.15838955  0.82379380  0.39631779     0.82200
O230        O  0.08679200  0.86440196  0.41188049    -0.80000
O231        O  0.15436602  0.89181452  0.40167085    -0.81500
O232        O  0.14483726  0.88320254  0.33113945    -0.81300
O233        O  0.10896274  0.84502606  0.32709835    -0.79900
Zn234      Zn  0.11574891  0.83458594  0.37814662     1.55700
O235        O  0.16929019  0.87785119  0.35504680    -0.81300
Cd236      Cd  0.11823438  0.87067382  0.34398623     1.59700
Cd237      Cd  0.10413033  0.88240709  0.39137518     1.59600
O238        O  0.09467130  0.89191543  0.34081245    -0.81300
O239        O  0.12225491  0.86364797  0.37375564    -1.91800
Cd240      Cd  0.15207276  0.86816580  0.38051439     1.59900
O241        O  0.08321089  0.89902365  0.37272381    -0.81200
O242        O  0.16515573  0.84220009  0.39394849    -0.79900
C243        C  0.08380909  0.84483718  0.41219851     0.82700
C244        C  0.10399265  0.82675025  0.33265282     0.82300
O245        O  0.14034260  0.81849414  0.39000411    -0.78800
C246        C  0.16365860  0.88445467  0.33725308     0.83100
O247        O  0.09318462  0.83265291  0.39966445    -0.78900
C248        C  0.08210649  0.90116528  0.35301216     0.83300
C249        C  0.14211883  0.90434388  0.41088189     0.83600
O250        O  0.12241086  0.90334140  0.40848821    -0.81400
C251        C  0.99631586  0.74576916  0.54655562     0.79900
N252        N  0.00418700  0.76169276  0.53509028    -0.78400
C253        C  0.00290491  0.76125693  0.51400533     0.82300
N254        N  0.99426340  0.74458340  0.50453468    -0.78400
C255        C  0.98659173  0.72852643  0.51561908     0.82400
N256        N  0.98737251  0.72926180  0.53670466    -0.80100
C257        C  0.24071934  0.03911316  0.50042405     0.79900
N258        N  0.22527319  0.02735118  0.49182983    -0.78400
C259        C  0.22550224  0.00634457  0.49386787     0.82300
N260        N  0.24153928  0.99726333  0.50405867    -0.78400
C261        C  0.25695147  0.00869691  0.51265703     0.82400
N262        N  0.25645373  0.02963407  0.51096252    -0.80100
C263        C  0.25071646  0.69697460  0.50567224     0.79900
N264        N  0.26072657  0.70800728  0.52081934    -0.78400
C265        C  0.25965012  0.72906500  0.52109059     0.82300
N266        N  0.24914599  0.73895478  0.50579023    -0.78400
C267        C  0.23933211  0.72831366  0.49050034     0.82400
N268        N  0.23985268  0.70723672  0.49063179    -0.80100
C269        C  0.00224675  0.73444235  0.20166741     0.79900
N270        N  0.01741180  0.74320053  0.21367851    -0.78400
C271        C  0.01524409  0.74435032  0.23468239     0.82300
N272        N  0.99758616  0.73711131  0.24348510    -0.78400
C273        C  0.98235762  0.72835273  0.23189942     0.82400
N274        N  0.98476887  0.72678845  0.21093303    -0.80100
C275        C  0.20426901  0.99770867  0.74934429     0.79900
N276        N  0.21503575  0.01415907  0.75732245    -0.78400
C277        C  0.23616897  0.01389096  0.75775598     0.82300
N278        N  0.24635006  0.99710720  0.75021932    -0.78400
C279        C  0.23605838  0.98053136  0.74230240     0.82400
N280        N  0.21485635  0.98085897  0.74183874    -0.80100
C281        C  0.76229344  0.19932278  0.99798733     0.79900
N282        N  0.77005526  0.21160932  0.01347447    -0.78400
C283        C  0.76998569  0.23262008  0.01144419     0.82300
N284        N  0.76239508  0.24115231  0.99374454    -0.78400
C285        C  0.75458166  0.22915410  0.97830974     0.82400
N286        N  0.75440761  0.20826184  0.98051781    -0.80100
C287        C  0.49980400  0.74794391  0.79376688     0.79900
N288        N  0.48348315  0.75648437  0.78326218    -0.78400
C289        C  0.48285722  0.75563724  0.76215114     0.82300
N290        N  0.49885374  0.74680885  0.75170263    -0.78400
C291        C  0.51520082  0.73843714  0.76186619     0.82400
N292        N  0.51554536  0.73875748  0.78294862    -0.80100
C293        C  0.50176785  0.74547126  0.44921503     0.79900
N294        N  0.49241739  0.76150555  0.45950056    -0.78400
C295        C  0.49182596  0.76181709  0.48061764     0.82300
N296        N  0.50014621  0.74582141  0.49134549    -0.78400
C297        C  0.50912504  0.72951912  0.48147240     0.82400
N298        N  0.51017998  0.72952039  0.46033765    -0.80100
C299        C  0.75004490  0.80138686  0.49784547     0.79900
N300        N  0.74032056  0.79178855  0.51398225    -0.78400
C301        C  0.73892105  0.77079394  0.51449339     0.82300
N302        N  0.74678426  0.75941125  0.49858934    -0.78400
C303        C  0.75620009  0.76873641  0.48224815     0.82400
N304        N  0.75809928  0.78972896  0.48207362    -0.80100
C305        C  0.46517577  0.48809147  0.74569756     0.79900
N306        N  0.47547155  0.47837789  0.76148975    -0.78400
C307        C  0.49653094  0.47989928  0.76296017     0.82300
N308        N  0.50709087  0.49067801  0.74834046    -0.78400
C309        C  0.49719495  0.50012034  0.73238430     0.82400
N310        N  0.47613987  0.49901451  0.73127870    -0.80100
C311        C  0.80871393  0.50280040  0.74218803     0.79900
N312        N  0.79773879  0.51800947  0.73241254    -0.78400
C313        C  0.77662060  0.51742067  0.73212095     0.82300
N314        N  0.76658051  0.50158088  0.74154635    -0.78400
C315        C  0.77722977  0.48625992  0.75123294     0.82400
N316        N  0.79837382  0.48693402  0.75160682    -0.80100
C317        C  0.74266658  0.44950519  0.49312497     0.79900
N318        N  0.72621055  0.46045548  0.50097654    -0.78400
C319        C  0.72608001  0.48152986  0.50012333     0.82300
N320        N  0.74269478  0.49146983  0.49204872    -0.78400
C321        C  0.75927927  0.48101349  0.48450266     0.82400
N322        N  0.75917956  0.45992762  0.48478940    -0.80100
C323        C  0.70157937  0.48465682  0.25631362     0.79900
N324        N  0.71219717  0.50004782  0.26640473    -0.78400
C325        C  0.73331509  0.49921870  0.26794789     0.82300
N326        N  0.74351227  0.48284204  0.25958857    -0.78400
C327        C  0.73330524  0.46746965  0.24953951     0.82400
N328        N  0.71230873  0.46852508  0.24770233    -0.80100
O329        O  0.11623852  0.35431511  0.67240187    -0.78900
C330        C  0.17393925  0.38780588  0.65756144     0.82200
O331        O  0.09062612  0.40045599  0.62457950    -0.80000
O332        O  0.16101883  0.39185588  0.59182552    -0.81500
O333        O  0.14763689  0.31943542  0.61316102    -0.81300
O334        O  0.11300239  0.32683952  0.65164938    -0.79900
Zn335      Zn  0.12782449  0.37692044  0.65375485     1.55700
O336        O  0.17217851  0.34252285  0.60563489    -0.81300
Cd337      Cd  0.12305963  0.33757930  0.62340606     1.59700
Cd338      Cd  0.11183020  0.38390715  0.60679106     1.59600
O339        O  0.09947435  0.33357030  0.60211063    -0.81300
O340        O  0.13054990  0.36735858  0.62530178    -1.91800
Cd341      Cd  0.15963569  0.37043049  0.61550055     1.59900
O342        O  0.09552026  0.36438736  0.58688624    -0.81200
O343        O  0.17803448  0.38192273  0.63909173    -0.79900
C344        C  0.09236858  0.40649539  0.64337792     0.82700
C345        C  0.11097833  0.33548356  0.66935910     0.82300
O346        O  0.15557830  0.38670646  0.66499420    -0.78800
C347        C  0.16559064  0.32388662  0.60609158     0.83100
O348        O  0.10697126  0.40016090  0.65517197    -0.78900
C349        C  0.09141319  0.34509383  0.58821865     0.83300
C350        C  0.14820155  0.40502788  0.58448868     0.83600
O351        O  0.12899918  0.40503957  0.58943144    -0.81400
O352        O  0.59757962  0.13343078  0.42257530    -0.78900
C353        C  0.63799691  0.08066626  0.41238352     0.82200
O354        O  0.64908742  0.15856875  0.37382587    -0.80000
O355        O  0.63997781  0.08614557  0.34646953    -0.81500
O356        O  0.56750362  0.10142696  0.36239684    -0.81300
O357        O  0.57154317  0.13723455  0.40012985    -0.79900
Zn358      Zn  0.62228015  0.12488026  0.40512240     1.55700
O359        O  0.59050200  0.07572637  0.36005754    -0.81300
Cd360      Cd  0.58450069  0.12666589  0.37266269     1.59700
Cd361      Cd  0.63185025  0.13678083  0.35693813     1.59600
O362        O  0.58115434  0.14871884  0.34975072    -0.81300
O363        O  0.61440945  0.11960384  0.37641204    -1.91800
Cd364      Cd  0.61813442  0.08958898  0.36979940     1.59900
O365        O  0.61269041  0.15262406  0.33588444    -0.81200
O366        O  0.63071590  0.07419206  0.39508182    -0.79900
C367        C  0.65073578  0.16124515  0.39343398     0.82700
C368        C  0.57887658  0.13854931  0.41850704     0.82300
O369        O  0.63619293  0.09960810  0.41795452    -0.78800
C370        C  0.57207757  0.08275359  0.35776889     0.83100
O371        O  0.64161895  0.14938128  0.40633536    -0.78900
C372        C  0.59315999  0.15634505  0.33598443     0.83300
C373        C  0.65275421  0.09824837  0.33743620     0.83600
O374        O  0.65239423  0.11784155  0.34037062    -0.81400
C375        C  0.48895160  0.24274912  0.54955283     0.79900
N376        N  0.49790258  0.22687829  0.53866391    -0.78400
C377        C  0.49534898  0.22542782  0.51770486     0.82300
N378        N  0.48348004  0.23970959  0.50789375    -0.78400
C379        C  0.47460704  0.25560534  0.51836694     0.82400
N380        N  0.47751127  0.25731341  0.53924800    -0.80100
O381        O  0.38153961  0.35382172  0.32317567    -0.78900
C382        C  0.32623521  0.39114458  0.33802377     0.82200
O383        O  0.40925770  0.39857270  0.37269836    -0.80000
O384        O  0.33691420  0.39246065  0.40366902    -0.81500
O385        O  0.34772887  0.31975197  0.37951241    -0.81300
O386        O  0.38542609  0.32627688  0.34351758    -0.79900
Zn387      Zn  0.37142771  0.37683943  0.34234175     1.55700
O388        O  0.32397284  0.34366583  0.38736847    -0.81300
Cd389      Cd  0.37393017  0.33686530  0.37177505     1.59700
Cd390      Cd  0.38671795  0.38273274  0.39007676     1.59600
O391        O  0.39513038  0.33120937  0.39525507    -0.81300
O392        O  0.36774770  0.36711669  0.37061838    -1.91800
Cd393      Cd  0.33833644  0.37133774  0.37948397     1.59900
O394        O  0.40148077  0.36183939  0.41021346    -0.81200
O395        O  0.32117091  0.38459577  0.35595920    -0.79900
C396        C  0.40869727  0.40409139  0.35364974     0.82700
C397        C  0.38710035  0.33503561  0.32584032     0.82300
O398        O  0.34472418  0.38915737  0.33109868    -0.78800
C399        C  0.32965187  0.32475868  0.38594866     0.83100
O400        O  0.39418971  0.39826258  0.34144507    -0.78900
C401        C  0.40359850  0.34212623  0.40951790     0.83300
C402        C  0.34988375  0.40499495  0.41193064     0.83600
O403        O  0.36931850  0.40416585  0.40772409    -0.81400
C404        C  0.54469634  0.48079928  0.24470182     0.79900
N405        N  0.53476023  0.48874992  0.22773770    -0.78400
C406        C  0.51376938  0.48705068  0.22577970     0.82300
N407        N  0.50293598  0.47722600  0.24083930    -0.78400
C408        C  0.51239623  0.46924275  0.25783839     0.82400
N409        N  0.53337268  0.47121755  0.25984389    -0.80100
C410        C  0.50016134  0.74668209  0.95056094     0.79900
N411        N  0.49140820  0.73037591  0.96072211    -0.78400
C412        C  0.49167115  0.72964860  0.98181490     0.82300
N413        N  0.50078693  0.74525563  0.99255508    -0.78400
C414        C  0.50958447  0.76158450  0.98277953     0.82400
N415        N  0.50920591  0.76229226  0.96167367    -0.80100
O416        O  0.36456017  0.56944080  0.10243470    -0.78900
C417        C  0.42236307  0.57551277  0.13672497     0.82200
O418        O  0.34571088  0.61599952  0.15681212    -0.80000
O419        O  0.41851981  0.64102354  0.14462217    -0.81500
O420        O  0.39632288  0.62922539  0.07249160    -0.81300
O421        O  0.35868106  0.59304017  0.07804071    -0.79900
Zn422      Zn  0.37682179  0.58508544  0.12681822     1.55700
O423        O  0.42379488  0.63032962  0.09361616    -0.81300
Cd424      Cd  0.37223486  0.61919834  0.09114422     1.59700
Cd425      Cd  0.36712446  0.63293367  0.13975161     1.59600
O426        O  0.35102874  0.64313934  0.09125441    -0.81300
O427        O  0.38205081  0.61384799  0.11998450    -1.91800
Cd428      Cd  0.41243594  0.61948377  0.12163394     1.59900
O429        O  0.35063276  0.65564898  0.12360624    -0.81200
O430        O  0.42858973  0.59325942  0.13070438    -0.79900
C431        C  0.34345404  0.59647289  0.15889685     0.82700
C432        C  0.35733329  0.57449072  0.08470804     0.82300
O433        O  0.40314952  0.57058518  0.13628979    -0.78800
C434        C  0.41540935  0.63332649  0.07590040     0.83100
O435        O  0.35495369  0.58357770  0.14916815    -0.78900
C436        C  0.34500090  0.65652264  0.10459081     0.83300
C437        C  0.40781594  0.64916891  0.15919007     0.83600
O438        O  0.38811560  0.64693675  0.16022837    -0.81400
C439        C  0.25584325  0.53985805  0.50669804     0.79900
N440        N  0.27215743  0.52921980  0.49813666    -0.78400
C441        C  0.27314417  0.50819000  0.49966791     0.82300
N442        N  0.25778559  0.49803816  0.50973367    -0.78400
C443        C  0.24136455  0.50819788  0.51803623     0.82400
N444        N  0.24031548  0.52916694  0.51640171    -0.80100
O445        O  0.57477857  0.88915809  0.13564124    -0.78900
C446        C  0.58763246  0.85599277  0.07916564     0.82200
O447        O  0.62453850  0.83866340  0.15868485    -0.80000
O448        O  0.65158185  0.85174754  0.08744407    -0.81500
O449        O  0.63603062  0.92337391  0.10792439    -0.81300
O450        O  0.59578632  0.91616835  0.14025758    -0.79900
Zn451      Zn  0.59348411  0.86607170  0.12520083     1.55700
O452        O  0.64015411  0.90194016  0.08106340    -0.81300
Cd453      Cd  0.62428514  0.90453190  0.13107762     1.59700
Cd454      Cd  0.64176009  0.85742502  0.13848124     1.59600
O455        O  0.64567887  0.90685564  0.15467374    -0.81300
O456        O  0.62194902  0.87520739  0.12195231    -1.91800
Cd457      Cd  0.62938535  0.87397096  0.09204341     1.59900
O458        O  0.66224106  0.87644210  0.15564834    -0.81200
O459        O  0.60493743  0.86399486  0.07400790    -0.79900
C460        C  0.60511450  0.83443543  0.15867580     0.82700
C461        C  0.57776614  0.90797018  0.14097773     0.82300
O462        O  0.58174507  0.85541914  0.09807353    -0.78800
C463        C  0.64181593  0.91984503  0.08931708     0.83100
O464        O  0.59250052  0.84327969  0.14624918    -0.78900
C465        C  0.66050266  0.89545169  0.16117894     0.83300
C466        C  0.66066358  0.83821007  0.09857546     0.83600
O467        O  0.65846757  0.83778245  0.11832886    -0.81400
C468        C  0.74801066  0.70195858  0.99699463     0.79900
N469        N  0.73819765  0.71399191  0.01151074    -0.78400
C470        C  0.73951717  0.73503844  0.01060484     0.82300
N471        N  0.75046732  0.74384736  0.99497873    -0.78400
C472        C  0.76035041  0.73221148  0.98052664     0.82400
N473        N  0.75923893  0.71122614  0.98162736    -0.80100
O474        O  0.87915764  0.15123188  0.67598171    -0.78900
C475        C  0.82746885  0.10884945  0.66716044     0.82200
O476        O  0.90880911  0.09938959  0.63247295    -0.80000
O477        O  0.83748944  0.09942793  0.60295911    -0.81500
O478        O  0.84410672  0.17548841  0.61623614    -0.81300
O479        O  0.88250986  0.17607113  0.65231611    -0.79900
Zn480      Zn  0.87157393  0.12525553  0.66030961     1.55700
O481        O  0.82232586  0.14930399  0.61037953    -0.81300
Cd482      Cd  0.87123967  0.16120415  0.62588753     1.59700
Cd483      Cd  0.88684699  0.11411357  0.61349840     1.59600
O484        O  0.89130124  0.16511081  0.60113038    -0.81300
O485        O  0.86708578  0.13099987  0.63105578    -1.91800
Cd486      Cd  0.83782794  0.12416638  0.62341253     1.59900
O487        O  0.90190445  0.13333365  0.59221413    -0.81200
O488        O  0.82153782  0.11402426  0.64900988    -0.79900
C489        C  0.91002894  0.09813098  0.65225991     0.82700
C490        C  0.88411606  0.16967670  0.67100238     0.82300
O491        O  0.84612193  0.11187707  0.67327168    -0.78800
C492        C  0.82682582  0.16854891  0.60944064     0.83100
O493        O  0.89659907  0.10671986  0.66404528    -0.78900
C494        C  0.90161088  0.15292606  0.58935890     0.83300
C495        C  0.85122308  0.08813772  0.59418197     0.83600
O496        O  0.87065732  0.09152498  0.59653567    -0.81400
C497        C  0.70767504  0.98946990  0.75298581     0.79900
N498        N  0.71866698  0.97315903  0.76085723    -0.78400
C499        C  0.73972361  0.97246786  0.75878685     0.82300
N500        N  0.74959538  0.98817650  0.74897242    -0.78400
C501        C  0.73900713  0.00458416  0.74126287     0.82400
N502        N  0.71800149  0.00516645  0.74333363    -0.80100
O503        O  0.86795072  0.91638033  0.89554277    -0.78900
C504        C  0.92378334  0.90561525  0.85577050     0.82200
O505        O  0.84358861  0.87064366  0.84313384    -0.80000
O506        O  0.91452986  0.83928946  0.85203720    -0.81500
O507        O  0.90217299  0.85778973  0.92478901    -0.81300
O508        O  0.86380511  0.89324299  0.92080901    -0.79900
Zn509      Zn  0.87875824  0.89989226  0.87065661     1.55700
O510        O  0.92661868  0.85331225  0.90075115    -0.81300
Cd511      Cd  0.87629915  0.86656916  0.90769729     1.59700
Cd512      Cd  0.86465882  0.85262234  0.85974575     1.59600
O513        O  0.85598272  0.84199942  0.91053473    -0.81300
O514        O  0.88283230  0.87088248  0.87771289    -1.91800
Cd515      Cd  0.91245079  0.86294019  0.87347288     1.59900
O516        O  0.84811834  0.83180931  0.87824188    -0.81200
O517        O  0.92900903  0.88725028  0.86081542    -0.79900
C518        C  0.84334509  0.89015836  0.83997743     0.82700
C519        C  0.86208102  0.91168351  0.91389647     0.82300
O520        O  0.90543008  0.91246281  0.85908843    -0.78800
C521        C  0.92048264  0.85230525  0.91956976     0.83100
O522        O  0.85639982  0.90225898  0.84872022    -0.78900
C523        C  0.84670486  0.82980536  0.89793926     0.83300
C524        C  0.90215015  0.83132588  0.83876004     0.83600
O525        O  0.88276283  0.83564587  0.83852909    -0.81400
O526        O  0.12913959  0.64373495  0.82052650    -0.78900
C527        C  0.18489509  0.60575918  0.83117744     0.82200
O528        O  0.10185432  0.59473587  0.86534700    -0.80000
O529        O  0.17247986  0.59408311  0.89449597    -0.81500
O530        O  0.16364775  0.67081085  0.88197004    -0.81300
O531        O  0.12765180  0.67002832  0.84290449    -0.79900
Zn532      Zn  0.13949431  0.61902393  0.83704279     1.55700
O533        O  0.18569179  0.64528245  0.88974670    -0.81300
Cd534      Cd  0.13774718  0.65608474  0.87010718     1.59700
Cd535      Cd  0.12335016  0.60989307  0.88424894     1.59600
O536        O  0.11534031  0.66067940  0.89262154    -0.81300
O537        O  0.14312550  0.62594628  0.86623291    -1.91800
Cd538      Cd  0.17218931  0.61965922  0.87506357     1.59900
O539        O  0.10792701  0.62939528  0.90518471    -0.81200
O540        O  0.18978969  0.61054351  0.84979276    -0.79900
C541        C  0.10247115  0.59057308  0.84593265     0.82700
C542        C  0.12476299  0.66257044  0.82474313     0.82300
O543        O  0.16638742  0.60808521  0.82435019    -0.78800
C544        C  0.18039060  0.66437939  0.89040367     0.83100
O545        O  0.11677149  0.59770680  0.83423049    -0.78900
C546        C  0.10603296  0.64909755  0.90565096     0.83300
C547        C  0.15843646  0.58306816  0.90304580     0.83600
O548        O  0.13913679  0.58721771  0.90103385    -0.81400
C549        C  0.00656935  0.74783259  0.70315788     0.79900
N550        N  0.99140604  0.75724671  0.71460718    -0.78400
C551        C  0.99323044  0.75860019  0.73559609     0.82300
N552        N  0.01006735  0.75023430  0.74505314    -0.78400
C553        C  0.02512246  0.74046721  0.73401738     0.82400
N554        N  0.02337839  0.73942067  0.71296549    -0.80100
C555        C  0.96566061  0.50272876  0.74723798     0.79900
N556        N  0.97586862  0.49032375  0.73340626    -0.78400
C557        C  0.99659784  0.48703800  0.73522023     0.82300
N558        N  0.00711405  0.49633702  0.75086961    -0.78400
C559        C  0.99746790  0.50892772  0.76470636     0.82400
N560        N  0.97659987  0.51218691  0.76286329    -0.80100
C561        C  0.30796113  0.49220117  0.74242021     0.79900
N562        N  0.29810710  0.50906988  0.75065035    -0.78400
C563        C  0.27702797  0.51042981  0.75027698     0.82300
N564        N  0.26592210  0.49473897  0.74178897    -0.78400
C565        C  0.27532549  0.47777599  0.73364469     0.82400
N566        N  0.29644168  0.47656092  0.73391578    -0.80100
C567        C  0.75692684  0.95804299  0.49548348     0.79900
N568        N  0.74099223  0.96916187  0.48706289    -0.78400
C569        C  0.74130363  0.99025372  0.48735138     0.82300
N570        N  0.75773725  0.00011590  0.49616849    -0.78400
C571        C  0.77369110  0.98936462  0.50476282     0.82400
N572        N  0.77318449  0.96827963  0.50446100    -0.80100
C573        C  0.99555473  0.24840313  0.45456787     0.79900
N574        N  0.98342341  0.23421234  0.46448484    -0.78400
C575        C  0.98469110  0.23212612  0.48547181     0.82300
N576        N  0.99773634  0.24451060  0.49639205    -0.78400
C577        C  0.00940502  0.25908612  0.48682627     0.82400
N578        N  0.00846009  0.26091227  0.46581279    -0.80100
C579        C  0.99929656  0.25125758  0.79654782     0.79900
N580        N  0.01585805  0.25891058  0.78586616    -0.78400
C581        C  0.01564457  0.25944074  0.76477508     0.82300
N582        N  0.99871331  0.25231898  0.75445896    -0.78400
C583        C  0.98202271  0.24472648  0.76476252     0.82400
N584        N  0.98237375  0.24421207  0.78589410    -0.80100
C585        C  0.51021114  0.74021527  0.29235594     0.79900
N586        N  0.49650363  0.72695819  0.28310351    -0.78400
C587        C  0.49830648  0.72243086  0.26256471     0.82300
N588        N  0.51340164  0.73164385  0.25126098    -0.78400
C589        C  0.52682863  0.74532176  0.25997063     0.82400
N590        N  0.52534920  0.74943943  0.28071760    -0.80100
C591        C  0.79195199  0.00181464  0.25081826     0.79900
N592        N  0.78286649  0.98675738  0.23890056    -0.78400
C593        C  0.76208488  0.98729751  0.23509455     0.82300
N594        N  0.75044773  0.00267889  0.24343936    -0.78400
C595        C  0.75899033  0.01750086  0.25570520     0.82400
N596        N  0.77985488  0.01707318  0.25933368    -0.80100
C597        C  0.25323663  0.79146215  0.01197288     0.79900
N598        N  0.26091306  0.78159590  0.02907705    -0.78400
C599        C  0.26103769  0.76054846  0.02991436     0.82300
N600        N  0.25376849  0.74949076  0.01353016    -0.78400
C601        C  0.24640121  0.75891689  0.99627307     0.82400
N602        N  0.24611171  0.77999335  0.99557175    -0.80100
C603        C  0.74072100  0.29247135  0.49499003     0.79900
N604        N  0.74884908  0.28121861  0.51098047    -0.78400
C605        C  0.74918215  0.26009889  0.51004606     0.82300
N606        N  0.74129931  0.25042025  0.49299800    -0.78400
C607        C  0.73292648  0.26136510  0.47711943     0.82400
N608        N  0.73260244  0.28238493  0.47820995    -0.80100
C609        C  0.20407832  0.50980199  0.25352943     0.79900
N610        N  0.21538402  0.52516437  0.24428608    -0.78400
C611        C  0.23653532  0.52468718  0.24502748     0.82300
N612        N  0.24610025  0.50877033  0.25474851    -0.78400
C613        C  0.23525897  0.49332289  0.26379781     0.82400
N614        N  0.21416816  0.49389520  0.26318247    -0.80100
C615        C  0.24314738  0.44600263  0.00177087     0.79900
N616        N  0.22782639  0.45605174  0.99113802    -0.78400
C617        C  0.22669813  0.47708208  0.99150159     0.82300
N618        N  0.24108566  0.48801976  0.00230528    -0.78400
C619        C  0.25671234  0.47839058  0.01263516     0.82400
N620        N  0.25769379  0.45730638  0.01231548    -0.80100
C621        C  0.44585618  0.99809668  0.24360176     0.79900
N622        N  0.45670236  0.00709144  0.25945836    -0.78400
C623        C  0.47781328  0.00694951  0.25945486     0.82300
N624        N  0.48792334  0.99769086  0.24348198    -0.78400
C625        C  0.47749537  0.98858200  0.22758329     0.82400
N626        N  0.45635193  0.98878106  0.22767896    -0.80100
C627        C  0.50278581  0.25348185  0.19804823     0.79900
N628        N  0.48691783  0.26304190  0.20845424    -0.78400
C629        C  0.48479175  0.26065839  0.22937560     0.82300
N630        N  0.49839011  0.24826983  0.23961216    -0.78400
C631        C  0.51424924  0.23874879  0.22956237     0.82400
N632        N  0.51654065  0.24146671  0.20876990    -0.80100
C633        C  0.24134921  0.19551873  0.48943295     0.79900
N634        N  0.23456257  0.20632114  0.50638396    -0.78400
C635        C  0.23431427  0.22735540  0.50632398     0.82300
N636        N  0.24093002  0.23746930  0.48917682    -0.78400
C637        C  0.24777620  0.22715297  0.47212957     0.82400
N638        N  0.24801517  0.20602818  0.47228596    -0.80100
C639        C  0.01208190  0.74225018  0.04478849     0.79900
N640        N  0.00182833  0.75760416  0.03437155    -0.78400
C641        C  0.00376363  0.75938637  0.01336713     0.82300
N642        N  0.01643412  0.74607579  0.00307255    -0.78400
C643        C  0.02671104  0.73079829  0.01311793     0.82400
N644        N  0.02435577  0.72870801  0.03399397    -0.80100
C645        C  0.75907130  0.04284888  0.00585044     0.79900
N646        N  0.77430983  0.03125081  0.99670757    -0.78400
C647        C  0.77331353  0.01018857  0.99689951     0.82300
N648        N  0.75677861  0.00091574  0.00595521    -0.78400
C649        C  0.74136604  0.01211361  0.01494241     0.82400
N650        N  0.74263718  0.03315243  0.01500955    -0.80100
C651        C  0.04598561  0.00293102  0.74713796     0.79900
N652        N  0.03545743  0.01543243  0.73368690    -0.78400
C653        C  0.01431254  0.01462275  0.73274925     0.82300
N654        N  0.00384129  0.00180127  0.74571204    -0.78400
C655        C  0.01405504  0.98974357  0.75962968     0.82400
N656        N  0.03520281  0.99014743  0.76003687    -0.80100
C657        C  0.22345526  0.74227779  0.94421352    -0.11200
C658        C  0.22366088  0.72050373  0.94596126     0.05900
C659        C  0.23191901  0.71168612  0.96410869    -0.10000
C660        C  0.23945088  0.72420397  0.98015771    -0.11600
C661        C  0.23887007  0.74596303  0.97864735    -0.01400
C662        C  0.23094530  0.75486814  0.96038418    -0.10500
C663        C  0.21417749  0.70697001  0.92965646     0.06000
H664        H  0.23199186  0.69505702  0.96626343     0.07900
H665        H  0.24544924  0.71670314  0.99394759     0.11300
H666        H  0.23038689  0.77154098  0.95862932     0.11600
H667        H  0.21745706  0.74962476  0.93034838     0.07900
C668        C  0.19593670  0.71318307  0.91938981    -0.11200
C669        C  0.18564700  0.69967842  0.90584167    -0.10500
C670        C  0.19318086  0.67949012  0.90230297    -0.01400
C671        C  0.21190727  0.67352920  0.91183149    -0.11600
C672        C  0.22233355  0.68714817  0.92527294    -0.10000
H673        H  0.18900270  0.72815495  0.92253668     0.07900
H674        H  0.17122923  0.70481578  0.89884106     0.11600
H675        H  0.21821061  0.65815039  0.90936725     0.11300
H676        H  0.23659112  0.68197529  0.93255540     0.07900
C677        C  0.16006053  0.54141162  0.94460316    -0.11200
C678        C  0.17863211  0.53101615  0.93963215     0.05900
C679        C  0.18992289  0.53730412  0.92208829    -0.10000
C680        C  0.18324776  0.55414446  0.91021772    -0.11600
C681        C  0.16489093  0.56480352  0.91535731    -0.01400
C682        C  0.15308656  0.55798116  0.93238597    -0.10500
C683        C  0.18749145  0.51509724  0.95368358     0.06000
H684        H  0.20440129  0.52971718  0.91805750     0.07900
H685        H  0.19253173  0.55892275  0.89703893     0.11300
H686        H  0.13885398  0.56589293  0.93664751     0.11600
H687        H  0.15111476  0.53686726  0.95809295     0.07900
C688        C  0.19026143  0.51969870  0.97484574    -0.11200
C689        C  0.20212708  0.50663674  0.98744453    -0.10500
C690        C  0.21099508  0.48845827  0.97927467    -0.01400
C691        C  0.20693200  0.48300554  0.95852470    -0.11600
C692        C  0.19548082  0.49637033  0.94574505    -0.10000
H693        H  0.18440744  0.53407986  0.98131029     0.07900
H694        H  0.20507926  0.51114898  0.00341623     0.11600
H695        H  0.21376111  0.46915679  0.95185106     0.11300
H696        H  0.19350544  0.49248112  0.92946855     0.07900
C697        C  0.04877430  0.68355167  0.98586707    -0.11200
C698        C  0.06245501  0.69286081  0.97154291     0.05900
C699        C  0.06596519  0.71434765  0.97313280    -0.10000
C700        C  0.05495993  0.72639358  0.98740776    -0.11600
C701        C  0.04063756  0.71725628  0.00095545    -0.01400
C702        C  0.03804853  0.69566488  0.00056693    -0.10500
C703        C  0.07239098  0.68073205  0.95435890     0.06000
H704        H  0.07691520  0.72203233  0.96299334     0.07900
H705        H  0.05726858  0.74303185  0.98754336     0.11300
H706        H  0.02687602  0.68835854  0.01076553     0.11600
H707        H  0.04560967  0.66709134  0.98512294     0.07900
C708        C  0.07880098  0.66002560  0.95705029    -0.11200
C709        C  0.08902053  0.64933450  0.94096684    -0.10500
C710        C  0.09321918  0.65919548  0.92196930    -0.01400
C711        C  0.08621224  0.67959002  0.91908333    -0.11600
C712        C  0.07577922  0.69010194  0.93492870    -0.10000
H713        H  0.07652391  0.65228410  0.97175820     0.07900
H714        H  0.09431327  0.63363174  0.94367195     0.11600
H715        H  0.08893217  0.68754479  0.90454792     0.11300
H716        H  0.07042531  0.70571045  0.93188797     0.07900
C717        C  0.21245009  0.58436019  0.78357178    -0.11200
C718        C  0.22927658  0.57370911  0.79261769     0.05900
C719        C  0.23226710  0.57529409  0.81420258    -0.10000
C720        C  0.21833218  0.58651669  0.82652555    -0.11600
C721        C  0.20093211  0.59625951  0.81761825    -0.01400
C722        C  0.19834341  0.59539457  0.79595337    -0.10500
C723        C  0.24241946  0.55938535  0.78004168     0.06000
H724        H  0.24480985  0.56703213  0.82174821     0.07900
H725        H  0.22067382  0.58673379  0.84319965     0.11300
H726        H  0.18519274  0.60289422  0.78862933     0.11600
H727        H  0.20989562  0.58374871  0.76694223     0.07900
C728        C  0.23318163  0.54673761  0.76481521    -0.11200
C729        C  0.24470585  0.53142199  0.75470786    -0.10500
C730        C  0.26581276  0.52831173  0.75949733    -0.01400
C731        C  0.27539147  0.54155708  0.77399416    -0.11600
C732        C  0.26377993  0.55690300  0.78422449    -0.10000
H733        H  0.21675793  0.54798604  0.76135996     0.07900
H734        H  0.23685369  0.52161656  0.74347776     0.11600
H735        H  0.29162845  0.53958880  0.77797484     0.11300
H736        H  0.27142803  0.56657437  0.79569928     0.07900
C737        C  0.01793258  0.54824917  0.80402146    -0.11200
C738        C  0.03840414  0.54103872  0.80670086     0.05900
C739        C  0.04424855  0.52220274  0.79754879    -0.10000
C740        C  0.03040790  0.51135474  0.78493519    -0.11600
C741        C  0.01034204  0.51912632  0.78095823    -0.01400
C742        C  0.00396638  0.53736689  0.79117183    -0.10500
C743        C  0.05445346  0.55381062  0.81714691     0.06000
H744        H  0.05984976  0.51620497  0.79962690     0.07900
H745        H  0.03577314  0.49715997  0.77767354     0.11300
H746        H  0.98862583  0.54372349  0.78844275     0.11600
H747        H  0.01313334  0.56280422  0.81094994     0.07900
C748        C  0.07298024  0.55826796  0.80656156    -0.11200
C749        C  0.08852960  0.57003648  0.81601506    -0.10500
C750        C  0.08604984  0.57748073  0.83641675    -0.01400
C751        C  0.06754659  0.57286387  0.84713724    -0.11600
C752        C  0.05178047  0.56126363  0.83749279    -0.10000
H753        H  0.07533139  0.55277623  0.79080393     0.07900
H754        H  0.10253544  0.57329485  0.80728523     0.11600
H755        H  0.06514304  0.57844619  0.86284351     0.11300
H756        H  0.03764484  0.55789097  0.84596415     0.07900
C757        C  0.09464493  0.67850510  0.77663355    -0.11200
C758        C  0.09052952  0.69953659  0.78074460     0.05900
C759        C  0.09988731  0.70879622  0.79825825    -0.10000
C760        C  0.11182739  0.69702185  0.81204790    -0.11600
C761        C  0.11494414  0.67573085  0.80855519    -0.01400
C762        C  0.10676351  0.66676366  0.79033377    -0.10500
C763        C  0.07502027  0.71119333  0.76806774     0.06000
H764        H  0.09749368  0.72506760  0.80165603     0.07900
H765        H  0.11807807  0.70448279  0.82580317     0.11300
H766        H  0.10882320  0.65039708  0.78716990     0.11600
H767        H  0.08758800  0.67078842  0.76343056     0.07900
C768        C  0.07302113  0.70795019  0.74648312    -0.11200
C769        C  0.05716701  0.71777509  0.73517790    -0.10500
C770        C  0.04294418  0.73098169  0.74523979    -0.01400
C771        C  0.04533060  0.73456714  0.76668709    -0.11600
C772        C  0.06107470  0.72481758  0.77790714    -0.10000
H773        H  0.08360747  0.69770786  0.73835972     0.07900
H774        H  0.05580483  0.71469616  0.71867435     0.11600
H775        H  0.03475737  0.74466782  0.77501696     0.11300
H776        H  0.06180204  0.72743052  0.79452345     0.07900
C777        C  0.96856449  0.96596645  0.78856526    -0.11200
C778        C  0.97850164  0.95452957  0.80421298     0.05900
C779        C  0.00035408  0.95416145  0.80476785    -0.10000
C780        C  0.01199807  0.96534129  0.79018082    -0.11600
C781        C  0.00201069  0.97697988  0.77462553    -0.01400
C782        C  0.98013768  0.97697632  0.77394591    -0.10500
C783        C  0.96588513  0.94270311  0.81946450     0.06000
H784        H  0.00842109  0.94548046  0.81668744     0.07900
H785        H  0.02879139  0.96501902  0.79122351     0.11300
H786        H  0.97184364  0.98563265  0.76216972     0.11600
H787        H  0.95176398  0.96621463  0.78749058     0.07900
C788        C  0.94809610  0.95165153  0.82849042    -0.11200
C789        C  0.93486824  0.93988102  0.84102950    -0.10500
C790        C  0.93913253  0.91887204  0.84483776    -0.01400
C791        C  0.95748299  0.91020197  0.83661410    -0.11600
C792        C  0.97071611  0.92199468  0.82407634    -0.10000
H793        H  0.94418674  0.96769533  0.82547938     0.07900
H794        H  0.92100192  0.94709367  0.84727518     0.11600
H795        H  0.96122419  0.89403988  0.83917035     0.11300
H796        H  0.98423852  0.91465575  0.81724419     0.07900
C797        C  0.83997662  0.93908540  0.96134691    -0.11200
C798        C  0.83097937  0.95690454  0.95257644     0.05900
C799        C  0.83344112  0.96033942  0.93114781    -0.10000
C800        C  0.84409649  0.94599516  0.91868914    -0.11600
C801        C  0.85245820  0.92782286  0.92735200    -0.01400
C802        C  0.85052934  0.92469809  0.94888384    -0.10500
C803        C  0.81775688  0.97099721  0.96535988     0.06000
H804        H  0.82643338  0.97373284  0.92385545     0.07900
H805        H  0.84515772  0.94879305  0.90213867     0.11300
H806        H  0.85694705  0.91096137  0.95608019     0.11600
H807        H  0.83859404  0.93611666  0.97784279     0.07900
C808        C  0.80344201  0.96267466  0.97952128    -0.11200
C809        C  0.78951368  0.97551954  0.99010441    -0.10500
C810        C  0.78953231  0.99709676  0.98690871    -0.01400
C811        C  0.80445013  0.00557870  0.97344329    -0.11600
C812        C  0.81834801  0.99264258  0.96269299    -0.10000
H813        H  0.80242291  0.94608807  0.98182811     0.07900
H814        H  0.77839388  0.96840365  0.00049414     0.11600
H815        H  0.80498714  0.02212322  0.97073015     0.11300
H816        H  0.82939198  0.99953691  0.95208174     0.07900
C817        C  0.96670217  0.82530741  0.94390558    -0.11200
C818        C  0.95899261  0.82000007  0.96366155     0.05900
C819        C  0.93952737  0.82789583  0.96973096    -0.10000
C820        C  0.92746760  0.83949364  0.95582327    -0.11600
C821        C  0.93457507  0.84337864  0.93551451    -0.01400
C822        C  0.95462573  0.83673390  0.92999268    -0.10500
C823        C  0.97048170  0.80487967  0.97692798     0.06000
H824        H  0.93307560  0.82416317  0.98479308     0.07900
H825        H  0.91214510  0.84451180  0.96065324     0.11300
H826        H  0.96073668  0.83967420  0.91460176     0.11600
H827        H  0.98189768  0.82008448  0.93891029     0.07900
C828        C  0.98092898  0.78818622  0.96752402    -0.11200
C829        C  0.99160746  0.77368229  0.97944314    -0.10500
C830        C  0.99206466  0.77518506  0.00125642    -0.01400
C831        C  0.98132731  0.79163510  0.01085013    -0.11600
C832        C  0.97066952  0.80637268  0.99879914    -0.10000
H833        H  0.98059565  0.78604166  0.95082662     0.07900
H834        H  0.99936314  0.76109206  0.97142318     0.11600
H835        H  0.98132337  0.79323015  0.02761275     0.11300
H836        H  0.96280195  0.81903278  0.00658052     0.07900
C837        C  0.93981666  0.79456999  0.81339847    -0.11200
C838        C  0.93461933  0.79633741  0.79225470     0.05900
C839        C  0.91654687  0.80737498  0.78679399    -0.10000
C840        C  0.90486590  0.81769578  0.80212892    -0.11600
C841        C  0.91123290  0.81722134  0.82303764    -0.01400
C842        C  0.92841642  0.80503263  0.82854356    -0.10500
C843        C  0.94913532  0.78796085  0.77628944     0.06000
H844        H  0.91211974  0.80897140  0.77064413     0.07900
H845        H  0.89170115  0.82708619  0.79749728     0.11300
H846        H  0.93349427  0.80418004  0.84457392     0.11600
H847        H  0.95324120  0.78564377  0.81821002     0.07900
C848        C  0.97065987  0.79003023  0.77942506    -0.11200
C849        C  0.98475312  0.78089482  0.76580572    -0.10500
C850        C  0.97778862  0.76975808  0.74840601    -0.01400
C851        C  0.95632571  0.76857487  0.74441770    -0.11600
C852        C  0.94205468  0.77756159  0.75834512    -0.10000
H853        H  0.97667446  0.79854797  0.79265671     0.07900
H854        H  0.00122547  0.78238516  0.76901877     0.11600
H855        H  0.95061276  0.76003340  0.73106622     0.11300
H856        H  0.92556083  0.77578764  0.75547483     0.07900
C857        C  0.79269697  0.89923899  0.81083489    -0.11200
C858        C  0.79663305  0.91840190  0.80129179     0.05900
C859        C  0.81615939  0.92776290  0.80414923    -0.10000
C860        C  0.83130713  0.91840285  0.81648248    -0.11600
C861        C  0.82744719  0.89928890  0.82607982    -0.01400
C862        C  0.80807252  0.88964006  0.82294950    -0.10500
C863        C  0.78054861  0.92918205  0.78874423     0.06000
H864        H  0.81955986  0.94265060  0.79721600     0.07900
H865        H  0.84607824  0.92620041  0.81857342     0.11300
H866        H  0.80463983  0.87495622  0.83028223     0.11600
H867        H  0.77779073  0.89168428  0.80884947     0.07900
C868        C  0.78618225  0.93863779  0.76997642    -0.11200
C869        C  0.77234177  0.95169179  0.75969030    -0.10500
C870        C  0.75244894  0.95559999  0.76785221    -0.01400
C871        C  0.74617525  0.94497234  0.78581831    -0.11600
C872        C  0.76015421  0.93185936  0.79621680    -0.10000
H873        H  0.80163743  0.93651534  0.76363078     0.07900
H874        H  0.77753233  0.95937333  0.74568387     0.11600
H875        H  0.73096029  0.94772584  0.79247910     0.11300
H876        H  0.75542908  0.92477617  0.81069145     0.07900
C877        C  0.91139980  0.18705066  0.72017052    -0.11200
C878        C  0.91648688  0.20768212  0.71549810     0.05900
C879        C  0.90868359  0.21643223  0.69706318    -0.10000
C880        C  0.89722363  0.20441240  0.68299339    -0.11600
C881        C  0.89319720  0.18342966  0.68713886    -0.01400
C882        C  0.89983325  0.17509243  0.70619936    -0.10500
C883        C  0.93168687  0.21914305  0.72863590     0.06000
H884        H  0.91201856  0.23240604  0.69319844     0.07900
H885        H  0.89215013  0.21135471  0.66855412     0.11300
H886        H  0.89705220  0.15896738  0.70988397     0.11600
H887        H  0.91735041  0.17974556  0.73408271     0.07900
C888        C  0.93180226  0.21708024  0.75041304    -0.11200
C889        C  0.94776767  0.22589776  0.76235379    -0.10500
C890        C  0.96397769  0.23685245  0.75272728    -0.01400
C891        C  0.96334371  0.23957356  0.73105036    -0.11600
C892        C  0.94743945  0.23083823  0.71918573    -0.10000
H893        H  0.91974594  0.20834291  0.75817216     0.07900
H894        H  0.94770879  0.22363910  0.77902336     0.11600
H895        H  0.97545641  0.24804276  0.72307453     0.11300
H896        H  0.94803419  0.23249646  0.70245510     0.07900
C897        C  0.94155957  0.16103573  0.54670893    -0.11200
C898        C  0.93522388  0.18017311  0.53842991     0.05900
C899        C  0.91741613  0.18982633  0.54652070    -0.10000
C900        C  0.90657889  0.18091776  0.56304860    -0.11600
C901        C  0.91308752  0.16195743  0.57160753    -0.01400
C902        C  0.93044592  0.15188688  0.56299282    -0.10500
C903        C  0.94820804  0.19111336  0.52291278     0.06000
H904        H  0.91234351  0.20468790  0.54058665     0.07900
H905        H  0.89310207  0.18892188  0.56919091     0.11300
H906        H  0.93575211  0.13723124  0.56921586     0.11600
H907        H  0.95526104  0.15330257  0.54072299     0.07900
C908        C  0.96951411  0.19375309  0.52672723    -0.11200
C909        C  0.98144347  0.20647323  0.51394979    -0.10500
C910        C  0.97244306  0.21650254  0.49681901    -0.01400
C911        C  0.95140677  0.21297842  0.49221244    -0.11600
C912        C  0.93928976  0.20056410  0.50534044    -0.10000
H913        H  0.97672681  0.18682871  0.54024744     0.07900
H914        H  0.99766079  0.20893081  0.51778651     0.11600
H915        H  0.94412376  0.22067309  0.47916028     0.11300
H916        H  0.92287521  0.19871945  0.50207923     0.07900
C917        C  0.95034041  0.08114121  0.69181630    -0.11200
C918        C  0.95989545  0.06432319  0.68171500     0.05900
C919        C  0.95335949  0.05905027  0.66149865    -0.10000
C920        C  0.93750666  0.07029954  0.65165503    -0.11600
C921        C  0.92752169  0.08671292  0.66204226    -0.01400
C922        C  0.93420842  0.09206576  0.68218631    -0.10500
C923        C  0.97553943  0.05151839  0.69289627     0.06000
H924        H  0.96047371  0.04614847  0.65336216     0.07900
H925        H  0.93268446  0.06582064  0.63614761     0.11300
H926        H  0.92692498  0.10473826  0.69054052     0.11600
H927        H  0.95489550  0.08541006  0.70746707     0.07900
C928        C  0.99196055  0.06078420  0.70404881    -0.11200
C929        C  0.00544455  0.04867978  0.71616026    -0.10500
C930        C  0.00236531  0.02720955  0.71773771    -0.01400
C931        C  0.98628027  0.01792378  0.70623527    -0.11600
C932        C  0.97319182  0.02989966  0.69372837    -0.10000
H933        H  0.99413025  0.07742110  0.70364159     0.07900
H934        H  0.01762901  0.05618437  0.72504983     0.11600
H935        H  0.98359745  0.00138383  0.70725440     0.11300
H936        H  0.96059965  0.02236456  0.68545623     0.07900
C937        C  0.80556526  0.21715293  0.58412901    -0.11200
C938        C  0.78746389  0.20973487  0.57436737     0.05900
C939        C  0.78121706  0.18918826  0.57825148    -0.10000
C940        C  0.79345640  0.17604167  0.59047112    -0.11600
C941        C  0.81219332  0.18314819  0.59920305    -0.01400
C942        C  0.81774632  0.20404825  0.59641267    -0.10500
C943        C  0.77628711  0.22273030  0.55879147     0.06000
H944        H  0.76711519  0.18307782  0.57138380     0.07900
H945        H  0.78859166  0.16010306  0.59245600     0.11300
H946        H  0.83203033  0.21009686  0.60295887     0.11600
H947        H  0.81097127  0.23279542  0.58140503     0.07900
C948        C  0.77439245  0.24435473  0.56130592    -0.11200
C949        C  0.76543186  0.25657017  0.54566590    -0.10500
C950        C  0.75812556  0.24743277  0.52717207    -0.01400
C951        C  0.75961527  0.22577097  0.52493691    -0.11600
C952        C  0.76859247  0.21363631  0.54046126    -0.10000
H953        H  0.77993030  0.25186284  0.57532582     0.07900
H954        H  0.76438180  0.27316664  0.54800584     0.11600
H955        H  0.75420053  0.21810268  0.51095106     0.11300
H956        H  0.77012143  0.19713716  0.53773122     0.07900
C957        C  0.81658996  0.04620347  0.57196173    -0.11200
C958        C  0.82798003  0.03939498  0.55470290     0.05900
C959        C  0.84775073  0.04781652  0.55095802    -0.10000
C960        C  0.85585724  0.06314342  0.56425361    -0.11600
C961        C  0.84400638  0.07060677  0.58107326    -0.01400
C962        C  0.82443015  0.06173308  0.58491963    -0.10500
C963        C  0.81784104  0.02532540  0.53966017     0.06000
H964        H  0.85664649  0.04286654  0.53754862     0.07900
H965        H  0.87097039  0.06973243  0.56091426     0.11300
H966        H  0.81501015  0.06701810  0.59783768     0.11600
H967        H  0.80122055  0.04002011  0.57494419     0.07900
C968        C  0.81494781  0.00427439  0.54429443    -0.11200
C969        C  0.80162763  0.99203734  0.53208505    -0.10500
C970        C  0.79061434  0.00087019  0.51542071    -0.01400
C971        C  0.79441583  0.02170617  0.51028039    -0.11600
C972        C  0.80797681  0.03376786  0.52222274    -0.10000
H973        H  0.82225738  0.99759062  0.55787800     0.07900
H974        H  0.79897680  0.97606247  0.53645723     0.11600
H975        H  0.78628511  0.02892955  0.49746065     0.11300
H976        H  0.80982225  0.05004727  0.51858646     0.07900
C977        C  0.80649486  0.07522714  0.71033614    -0.11200
C978        C  0.78624921  0.07094445  0.70323107     0.05900
C979        C  0.77881104  0.08147251  0.68565671    -0.10000
C980        C  0.79185869  0.09480498  0.67458854    -0.11600
C981        C  0.81259893  0.09790841  0.68088024    -0.01400
C982        C  0.81952585  0.08853792  0.69929382    -0.10500
C983        C  0.77376018  0.05425609  0.71306288     0.06000
H984        H  0.76331822  0.07852528  0.67977121     0.07900
H985        H  0.78596450  0.10192958  0.66054923     0.11300
H986        H  0.83532883  0.09070812  0.70467825     0.11600
H987        H  0.81251584  0.06774444  0.72413057     0.07900
C988        C  0.78356845  0.03582959  0.71923463    -0.11200
C989        C  0.77219546  0.01981094  0.72817000    -0.10500
C990        C  0.75062086  0.02166935  0.73114909    -0.01400
C991        C  0.74065515  0.03997860  0.72472646    -0.11600
C992        C  0.75212462  0.05611579  0.71574369    -0.10000
H993        H  0.80008505  0.03362258  0.71687188     0.07900
H994        H  0.78042834  0.00589387  0.73271039     0.11600
H995        H  0.72406737  0.04191839  0.72679786     0.11300
H996        H  0.74411634  0.07014036  0.71114334     0.07900
C997        C  0.77630184  0.77320491  0.94212662    -0.11200
C998        C  0.79649833  0.76692605  0.93689435     0.05900
C999        C  0.80409685  0.74799157  0.94458488    -0.10000
C1000       C  0.79184310  0.73584246  0.95782039    -0.11600
C1001       C  0.77209809  0.74279876  0.96397803    -0.01400
C1002       C  0.76432101  0.76138852  0.95572916    -0.10500
C1003       C  0.81022963  0.78135101  0.92550747     0.06000
H1004       H  0.81969743  0.74293352  0.94079388     0.07900
H1005       H  0.79821589  0.72164842  0.96413303     0.11300
H1006       H  0.74913001  0.76706074  0.96026194     0.11600
H1007       H  0.77022179  0.78784382  0.93658069     0.07900
C1008       C  0.80402511  0.79011624  0.90650776    -0.11200
C1009       C  0.81619832  0.80543231  0.89702922    -0.10500
C1010       C  0.83437856  0.81263505  0.90677661    -0.01400
C1011       C  0.84065018  0.80361745  0.92561648    -0.11600
C1012       C  0.82882378  0.78798241  0.93476027    -0.10000
H1013       H  0.78964340  0.78529043  0.89919077     0.07900
H1014       H  0.81103949  0.81215774  0.88251190     0.11600
H1015       H  0.85469223  0.80877260  0.93336585     0.11300
H1016       H  0.83376483  0.78163769  0.94952991     0.07900
C1017       C  0.49318730  0.95286430  0.18293419    -0.11200
C1018       C  0.51469349  0.95686219  0.18171590     0.05900
C1019       C  0.52325251  0.97204449  0.19486555    -0.10000
C1020       C  0.51091161  0.98264883  0.20908621    -0.11600
C1021       C  0.48958136  0.97835762  0.21080754    -0.01400
C1022       C  0.48070112  0.96360054  0.19731693    -0.10500
C1023       C  0.52878540  0.94461899  0.16799936     0.06000
H1024       H  0.53976506  0.97526823  0.19478873     0.07900
H1025       H  0.51831244  0.99397680  0.21911066     0.11300
H1026       H  0.46430363  0.95994224  0.19828409     0.11600
H1027       H  0.48607927  0.94133458  0.17293863     0.07900
C1028       C  0.52632869  0.92306569  0.16567512    -0.11200
C1029       C  0.54179809  0.91116487  0.15597757    -0.10500
C1030       C  0.56008712  0.92057627  0.14864027    -0.01400
C1031       C  0.56186452  0.94222960  0.14974408    -0.11600
C1032       C  0.54631793  0.95410762  0.15908353    -0.10000
H1033       H  0.51306917  0.91523117  0.17238345     0.07900
H1034       H  0.53991971  0.89450029  0.15519307     0.11600
H1035       H  0.57554608  0.94999651  0.14382278     0.11300
H1036       H  0.54841458  0.97073727  0.15998686     0.07900
C1037       C  0.72364062  0.96441546  0.19765850    -0.11200
C1038       C  0.72432764  0.94321317  0.20258280     0.05900
C1039       C  0.73986915  0.93616339  0.21628054    -0.10000
C1040       C  0.75346181  0.95033726  0.22591495    -0.11600
C1041       C  0.75155692  0.97166986  0.22201408    -0.01400
C1042       C  0.73691936  0.97846019  0.20740441    -0.10500
C1043       C  0.70783334  0.92920244  0.19434401     0.06000
H1044       H  0.74078714  0.91992497  0.22035543     0.07900
H1045       H  0.76451657  0.94481288  0.23733217     0.11300
H1046       H  0.73524795  0.99482892  0.20408132     0.11600
H1047       H  0.71227507  0.97028884  0.18672908     0.07900
C1048       C  0.68721099  0.93632864  0.19361925    -0.11200
C1049       C  0.67176704  0.92469249  0.18390087    -0.10500
C1050       C  0.67637947  0.90546251  0.17467085    -0.01400
C1051       C  0.69670024  0.89755326  0.17657435    -0.11600
C1052       C  0.71232332  0.90934643  0.18637430    -0.10000
H1053       H  0.68306428  0.95124452  0.20018876     0.07900
H1054       H  0.65624326  0.93115751  0.18303140     0.11600
H1055       H  0.70074661  0.88279896  0.16960194     0.11300
H1056       H  0.72805928  0.90338747  0.18683631     0.07900
C1057       C  0.67210088  0.96834927  0.07612514    -0.11200
C1058       C  0.67571464  0.96546418  0.05475584     0.05900
C1059       C  0.66590886  0.94881599  0.04453249    -0.10000
C1060       C  0.65413914  0.93449064  0.05564385    -0.11600
C1061       C  0.65158771  0.93665262  0.07720193    -0.01400
C1062       C  0.66006202  0.95411872  0.08722855    -0.10500
C1063       C  0.69133309  0.97825873  0.04360342     0.06000
H1064       H  0.66790835  0.94644847  0.02798350     0.07900
H1065       H  0.64753908  0.92136969  0.04742821     0.11300
H1066       H  0.65834814  0.95619536  0.10385341     0.11600
H1067       H  0.67951373  0.98091228  0.08450473     0.07900
C1068       C  0.69374403  0.99958374  0.04769756    -0.11200
C1069       C  0.70964958  0.01091364  0.03805638    -0.10500
C1070       C  0.72350635  0.00104594  0.02431634    -0.01400
C1071       C  0.72069209  0.97987846  0.01993024    -0.11600
C1072       C  0.70491149  0.96866391  0.02945360    -0.10000
H1073       H  0.68343297  0.00745778  0.05842506     0.07900
H1074       H  0.71138642  0.02721767  0.04171100     0.11600
H1075       H  0.73094217  0.97175784  0.00932150     0.11300
H1076       H  0.70384338  0.95222053  0.02621271     0.07900
C1077       C  0.56803702  0.79640449  0.18339881    -0.11200
C1078       C  0.57754741  0.79238228  0.20264345     0.05900
C1079       C  0.59693085  0.80156317  0.20696268    -0.10000
C1080       C  0.60641370  0.81469441  0.19242081    -0.11600
C1081       C  0.59650151  0.81912333  0.17346553    -0.01400
C1082       C  0.57734544  0.80961769  0.16905787    -0.10500
C1083       C  0.56673548  0.77909710  0.21812744     0.06000
H1084       H  0.60471467  0.79861542  0.22158231     0.07900
H1085       H  0.62116369  0.82184563  0.19624849     0.11300
H1086       H  0.56934941  0.81261857  0.15455186     0.11600
H1087       H  0.55300987  0.78981515  0.17963680     0.07900
C1088       C  0.56583383  0.78467632  0.23929074    -0.11200
C1089       C  0.55353274  0.77332941  0.25324532    -0.10500
C1090       C  0.54194047  0.75617228  0.24628588    -0.01400
C1091       C  0.54372914  0.75010643  0.22531138    -0.11600
C1092       C  0.55592804  0.76137998  0.21147474    -0.10000
H1093       H  0.57390581  0.79832907  0.24486992     0.07900
H1094       H  0.55252681  0.77843013  0.26926451     0.11600
H1095       H  0.53527897  0.73684536  0.21934297     0.11300
H1096       H  0.55660915  0.75640203  0.19539186     0.07900
C1097       C  0.70387315  0.75506132  0.05368969    -0.11200
C1098       C  0.70774196  0.77651220  0.05270191     0.05900
C1099       C  0.72294575  0.78374209  0.03890990    -0.10000
C1100       C  0.73341419  0.77012762  0.02577711    -0.11600
C1101       C  0.72908806  0.74876040  0.02601375    -0.01400
C1102       C  0.71446958  0.74126919  0.04042140    -0.10500
C1103       C  0.69543773  0.79177504  0.06493386     0.06000
H1104       H  0.72661469  0.80010497  0.03809141     0.07900
H1105       H  0.74478000  0.77652751  0.01518963     0.11300
H1106       H  0.71083525  0.72489804  0.04105684     0.11600
H1107       H  0.69218598  0.74907374  0.06417105     0.07900
C1108       C  0.68836824  0.80988441  0.05518457    -0.11200
C1109       C  0.67759990  0.82495839  0.06633541    -0.10500
C1110       C  0.67342778  0.82240103  0.08762178    -0.01400
C1111       C  0.68033780  0.80421125  0.09748052    -0.11600
C1112       C  0.69118116  0.78895810  0.08618329    -0.10000
H1113       H  0.69106048  0.81236515  0.03876555     0.07900
H1114       H  0.67240410  0.83863932  0.05811787     0.11600
H1115       H  0.67714928  0.80166776  0.11379141     0.11300
H1116       H  0.69650959  0.77515236  0.09409065     0.07900
C1117       C  0.31076781  0.55936101  0.19037546    -0.11200
C1118       C  0.29451140  0.57215833  0.19727301     0.05900
C1119       C  0.29436075  0.59312617  0.19162012    -0.10000
C1120       C  0.31049451  0.60123489  0.17946845    -0.11600
C1121       C  0.32679245  0.58837328  0.17251521    -0.01400
C1122       C  0.32664914  0.56732713  0.17803318    -0.10500
C1123       C  0.27846794  0.56340946  0.21110817     0.06000
H1124       H  0.28199748  0.60325047  0.19691325     0.07900
H1125       H  0.31009795  0.61748065  0.17533423     0.11300
H1126       H  0.33889642  0.55698034  0.17290161     0.11600
H1127       H  0.31112354  0.54311112  0.19454361     0.07900
C1128       C  0.25735595  0.56295618  0.20540592    -0.11200
C1129       C  0.24304104  0.55142716  0.21714594    -0.10500
C1130       C  0.24977550  0.54034775  0.23469234    -0.01400
C1131       C  0.27061037  0.54227596  0.24109027    -0.11600
C1132       C  0.28477731  0.55354992  0.22938299    -0.10000
H1133       H  0.25222600  0.57049785  0.19129440     0.07900
H1134       H  0.22710405  0.55019901  0.21184639     0.11600
H1135       H  0.27625972  0.53424098  0.25472636     0.11300
H1136       H  0.30092988  0.55392559  0.23417276     0.07900
C1137       C  0.33020556  0.52443947  0.06944349    -0.11200
C1138       C  0.31973115  0.53032130  0.05122102     0.05900
C1139       C  0.32360939  0.55010062  0.04293123    -0.10000
C1140       C  0.33661861  0.56411164  0.05326539    -0.11600
C1141       C  0.34612733  0.55867571  0.07214633    -0.01400
C1142       C  0.34325198  0.53846018  0.07979068    -0.10500
C1143       C  0.30371853  0.51659154  0.04166497     0.06000
H1144       H  0.31616901  0.55494601  0.02864465     0.07900
H1145       H  0.33862773  0.57945609  0.04681393     0.11300
H1146       H  0.35041633  0.53370862  0.09424800     0.11600
H1147       H  0.32753911  0.50936428  0.07626973     0.07900
C1148       C  0.30651481  0.49498226  0.04024869    -0.11200
C1149       C  0.29117398  0.48237565  0.03117570    -0.10500
C1150       C  0.27273145  0.49114454  0.02337280    -0.01400
C1151       C  0.26986784  0.51269060  0.02521896    -0.11600
C1152       C  0.28509461  0.52519407  0.03424238    -0.10000
H1153       H  0.32071030  0.48787472  0.04581187     0.07900
H1154       H  0.29390503  0.46585356  0.02997323     0.11600
H1155       H  0.25580190  0.52003097  0.01962485     0.11300
H1156       H  0.28215327  0.54167097  0.03559192     0.07900
C1157       C  0.27235777  0.71607513  0.06547215    -0.11200
C1158       C  0.29165401  0.72179785  0.07384160     0.05900
C1159       C  0.29901034  0.74207005  0.07073762    -0.10000
C1160       C  0.28807712  0.75573013  0.05774425    -0.11600
C1161       C  0.26979399  0.74912541  0.04773851    -0.01400
C1162       C  0.26156289  0.72957278  0.05253786    -0.10500
C1163       C  0.30530168  0.70548021  0.08242527     0.06000
H1164       H  0.31393197  0.74674000  0.07699453     0.07900
H1165       H  0.29475243  0.77071747  0.05421661     0.11300
H1166       H  0.24735733  0.72421220  0.04523387     0.11600
H1167       H  0.26631618  0.70058722  0.06783575     0.07900
C1168       C  0.31430827  0.70705419  0.10225384    -0.11200
C1169       C  0.32701075  0.69102191  0.10979312    -0.10500
C1170       C  0.33115515  0.67344036  0.09740480    -0.01400
C1171       C  0.32221782  0.67217955  0.07750839    -0.11600
C1172       C  0.30941694  0.68793048  0.07017994    -0.10000
H1173       H  0.31133115  0.72051066  0.11191725     0.07900
H1174       H  0.33375262  0.69247758  0.12515426     0.11600
H1175       H  0.32505903  0.65893698  0.06751115     0.11300
H1176       H  0.30283976  0.68651009  0.05472960     0.07900
C1177       C  0.44902767  0.69881601  0.24095572    -0.11200
C1178       C  0.45711565  0.68666643  0.22460066     0.05900
C1179       C  0.47877096  0.68387186  0.22339383    -0.10000
C1180       C  0.49205265  0.69462269  0.23670730    -0.11600
C1181       C  0.48404193  0.70799278  0.25193975    -0.01400
C1182       C  0.46243152  0.70931835  0.25463541    -0.10500
C1183       C  0.44349228  0.67820198  0.20783832     0.06000
H1184       H  0.48555131  0.67397845  0.21158095     0.07900
H1185       H  0.50869762  0.69310844  0.23457689     0.11300
H1186       H  0.45594451  0.71958557  0.26630044     0.11600
H1187       H  0.43243926  0.70123284  0.24242548     0.07900
C1188       C  0.42343834  0.67055256  0.21201668    -0.11200
C1189       C  0.41127655  0.66200348  0.19601526    -0.10500
C1190       C  0.41904049  0.66076617  0.17562189    -0.01400
C1191       C  0.43871673  0.66909416  0.17136130    -0.11600
C1192       C  0.45067717  0.67784665  0.18718509    -0.10000
H1193       H  0.41740141  0.67058368  0.22771308     0.07900
H1194       H  0.39619268  0.65557325  0.19975520     0.11600
H1195       H  0.44501892  0.66860503  0.15576006     0.11300
H1196       H  0.46568529  0.68427943  0.18317829     0.07900
C1197       C  0.54100493  0.80906410  0.99868753    -0.11200
C1198       C  0.54023983  0.80765933  0.02050532     0.05900
C1199       C  0.52921946  0.79124009  0.02953415    -0.10000
C1200       C  0.51911871  0.77664961  0.01720345    -0.11600
C1201       C  0.51985088  0.77789365  0.99540414    -0.01400
C1202       C  0.53084897  0.79431688  0.98623153    -0.10500
C1203       C  0.55136952  0.82261644  0.03412520     0.06000
H1204       H  0.52874646  0.78934886  0.04624525     0.07900
H1205       H  0.51091340  0.76420835  0.02489671     0.11300
H1206       H  0.53175491  0.79568124  0.96948507     0.11600
H1207       H  0.54934329  0.82158625  0.99128019     0.07900
C1208       C  0.57147751  0.82946426  0.02912904    -0.11200
C1209       C  0.58292923  0.84124859  0.04338737    -0.10500
C1210       C  0.57453695  0.84626041  0.06296290    -0.01400
C1211       C  0.55406442  0.84032847  0.06749204    -0.11600
C1212       C  0.54256423  0.82877757  0.05318037    -0.10000
H1213       H  0.57875711  0.82486452  0.01465877     0.07900
H1214       H  0.59870526  0.84557221  0.03946225     0.11600
H1215       H  0.54708744  0.84415888  0.08233490     0.11300
H1216       H  0.52691515  0.82418776  0.05728110     0.07900
C1217       C  0.45834550  0.68308997  0.99565335    -0.11200
C1218       C  0.46249500  0.68115018  0.01704596     0.05900
C1219       C  0.47693311  0.69463346  0.02630541    -0.10000
C1220       C  0.48664905  0.70995554  0.01466126    -0.11600
C1221       C  0.48220270  0.71227691  0.99340233    -0.01400
C1222       C  0.46818348  0.69848175  0.98390434    -0.10500
C1223       C  0.45096532  0.66618970  0.03019377     0.06000
H1224       H  0.48022063  0.69385634  0.04279250     0.07900
H1225       H  0.49744286  0.72022936  0.02249227     0.11300
H1226       H  0.46444541  0.69989084  0.96755701     0.11600
H1227       H  0.44738499  0.67282541  0.98805885     0.07900
C1228       C  0.42947706  0.66333504  0.02750381    -0.11200
C1229       C  0.41807010  0.65170203  0.04179125    -0.10500
C1230       C  0.42789649  0.64282088  0.05914737    -0.01400
C1231       C  0.44954487  0.64473417  0.06120762    -0.11600
C1232       C  0.46096554  0.65619180  0.04682527    -0.10000
H1233       H  0.42127224  0.67099143  0.01499519     0.07900
H1234       H  0.40139150  0.65055484  0.03979146     0.11600
H1235       H  0.45759875  0.63788149  0.07427802     0.11300
H1236       H  0.47757789  0.65773684  0.04907329     0.07900
C1237       C  0.50023619  0.52102940  0.17934312    -0.11200
C1238       C  0.47837963  0.51938531  0.17892774     0.05900
C1239       C  0.46877083  0.50559732  0.19276607    -0.10000
C1240       C  0.48047107  0.49447698  0.20716044    -0.11600
C1241       C  0.50217669  0.49691061  0.20839533    -0.01400
C1242       C  0.51201960  0.50991666  0.19393732    -0.10500
C1243       C  0.46532842  0.53302677  0.16548463     0.06000
H1244       H  0.45202538  0.50406826  0.19323410     0.07900
H1245       H  0.47226761  0.48450766  0.21788799     0.11300
H1246       H  0.52871184  0.51202604  0.19431746     0.11600
H1247       H  0.50821559  0.53121992  0.16866483     0.07900
C1248       C  0.47092198  0.55383039  0.16213806    -0.11200
C1249       C  0.45732947  0.56740011  0.15199099    -0.10500
C1250       C  0.43771660  0.56057063  0.14514850    -0.01400
C1251       C  0.43246452  0.53960913  0.14767391    -0.11600
C1252       C  0.44617004  0.52597337  0.15753810    -0.10000
H1253       H  0.48536521  0.55993919  0.16823822     0.07900
H1254       H  0.46182184  0.58348912  0.15034639     0.11600
H1255       H  0.41758217  0.53380742  0.14235056     0.11300
H1256       H  0.44151050  0.50996027  0.15935192     0.07900
C1257       C  0.31283253  0.48883797  0.46026990    -0.11200
C1258       C  0.31470118  0.46795952  0.46627316     0.05900
C1259       C  0.30530101  0.46155577  0.48481949    -0.10000
C1260       C  0.29306370  0.47521819  0.49634884    -0.11600
C1261       C  0.28974150  0.49567404  0.48959317    -0.01400
C1262       C  0.30040300  0.50262654  0.47185664    -0.10500
C1263       C  0.32428800  0.45216126  0.45239882     0.06000
H1264       H  0.30675007  0.44564888  0.48996059     0.07900
H1265       H  0.28538937  0.46941509  0.51013185     0.11300
H1266       H  0.29813821  0.51827118  0.46625725     0.11600
H1267       H  0.31993229  0.49413253  0.44598900     0.07900
C1268       C  0.31295217  0.43425212  0.44733288    -0.11200
C1269       C  0.32144396  0.41900050  0.43446404    -0.10500
C1270       C  0.34165922  0.42106952  0.42642616    -0.01400
C1271       C  0.35314123  0.43896724  0.43157399    -0.11600
C1272       C  0.34443861  0.45449121  0.44429905    -0.10000
H1273       H  0.29730029  0.43216220  0.45317776     0.07900
H1274       H  0.31208454  0.40552554  0.43079537     0.11600
H1275       H  0.36867462  0.44112788  0.42548052     0.11300
H1276       H  0.35348532  0.46816445  0.44800745     0.07900
C1277       C  0.49262544  0.44811833  0.30960225    -0.11200
C1278       C  0.47189609  0.44321092  0.30445093     0.05900
C1279       C  0.46546283  0.44546929  0.28372524    -0.10000
C1280       C  0.47889026  0.45331668  0.26875271    -0.11600
C1281       C  0.49932605  0.45909282  0.27391072    -0.01400
C1282       C  0.50624291  0.45601649  0.29443550    -0.10500
C1283       C  0.45661651  0.43573396  0.32016582     0.06000
H1284       H  0.44987712  0.44117405  0.27900023     0.07900
H1285       H  0.47307610  0.45504229  0.25305645     0.11300
H1286       H  0.52191678  0.46026780  0.29889305     0.11600
H1287       H  0.49809987  0.44641471  0.32541412     0.07900
C1288       C  0.46195938  0.42066455  0.33501114    -0.11200
C1289       C  0.44650323  0.41136810  0.34728844    -0.10500
C1290       C  0.42550693  0.41688525  0.34473391    -0.01400
C1291       C  0.42041369  0.43284859  0.33092709    -0.11600
C1292       C  0.43579206  0.44235494  0.31901856    -0.10000
H1293       H  0.47783103  0.41519610  0.33625852     0.07900
H1294       H  0.45075310  0.39891106  0.35769351     0.11600
H1295       H  0.40434951  0.43744020  0.32877551     0.11300
H1296       H  0.43121594  0.45433664  0.30820008     0.07900
C1297       C  0.30950995  0.27380224  0.40706367    -0.11200
C1298       C  0.28851359  0.27849849  0.41097984     0.05900
C1299       C  0.28069272  0.29772976  0.40423816    -0.10000
C1300       C  0.29387600  0.31248140  0.39536314    -0.11600
C1301       C  0.31513129  0.30823876  0.39268664    -0.01400
C1302       C  0.32263579  0.28846245  0.39792040    -0.10500
C1303       C  0.27567306  0.26464084  0.42432903     0.06000
H1304       H  0.26449246  0.30169185  0.40650406     0.07900
H1305       H  0.28753206  0.32743711  0.39113032     0.11300
H1306       H  0.33892921  0.28468490  0.39599892     0.11600
H1307       H  0.31615600  0.25927396  0.41218472     0.07900
C1308       C  0.27788975  0.24290002  0.42374261    -0.11200
C1309       C  0.26804708  0.23038408  0.43860402    -0.10500
C1310       C  0.25586421  0.23939640  0.45435584    -0.01400
C1311       C  0.25271552  0.26098063  0.45409630    -0.11600
C1312       C  0.26249800  0.27338988  0.43938592    -0.10000
H1313       H  0.28767811  0.23561370  0.41215033     0.07900
H1314       H  0.27067176  0.21380694  0.43826497     0.11600
H1315       H  0.24326693  0.26852390  0.46581725     0.11300
H1316       H  0.26057739  0.29002106  0.44060453     0.07900
C1317       C  0.28008259  0.46038388  0.28242323    -0.11200
C1318       C  0.27006692  0.44405605  0.29270633     0.05900
C1319       C  0.24818215  0.44396664  0.29352794    -0.10000
C1320       C  0.23664304  0.45986252  0.28412279    -0.11600
C1321       C  0.24682071  0.47614191  0.27381719    -0.01400
C1322       C  0.26867013  0.47609961  0.27307832    -0.10500
C1323       C  0.28280681  0.42786752  0.30309361     0.06000
H1324       H  0.23999287  0.43155604  0.30130082     0.07900
H1325       H  0.21984078  0.45943190  0.28496398     0.11300
H1326       H  0.27715106  0.48836057  0.26537125     0.11600
H1327       H  0.29687791  0.46131779  0.28194160     0.07900
C1328       C  0.30162339  0.42124667  0.29411086    -0.11200
C1329       C  0.31534884  0.40864149  0.30513036    -0.10500
C1330       C  0.31048988  0.40210405  0.32532589    -0.01400
C1331       C  0.29103538  0.40749994  0.33378625    -0.11600
C1332       C  0.27734916  0.42030366  0.32280147    -0.10000
H1333       H  0.30605063  0.42631121  0.27870962     0.07900
H1334       H  0.33004974  0.40453410  0.29803577     0.11600
H1335       H  0.28675700  0.40261504  0.34929178     0.11300
H1336       H  0.26302919  0.42513563  0.33020180     0.07900
C1337       C  0.41693660  0.32313927  0.27623140    -0.11200
C1338       C  0.42086484  0.30181888  0.27844835     0.05900
C1339       C  0.41127289  0.29117481  0.29490129    -0.10000
C1340       C  0.39944046  0.30181604  0.30970462    -0.11600
C1341       C  0.39670391  0.32336784  0.30834244    -0.01400
C1342       C  0.40493623  0.33380543  0.29101505    -0.10500
C1343       C  0.43659405  0.29107418  0.26522582     0.06000
H1344       H  0.41356746  0.27465785  0.29676371     0.07900
H1345       H  0.39303007  0.29324212  0.32263947     0.11300
H1346       H  0.40306882  0.35040959  0.28947099     0.11600
H1347       H  0.42411964  0.33179802  0.26377220     0.07900
C1348       C  0.43806627  0.29453335  0.24367303    -0.11200
C1349       C  0.45353422  0.28459405  0.23180773    -0.10500
C1350       C  0.46791978  0.27115807  0.24131444    -0.01400
C1351       C  0.46635349  0.26787793  0.26286634    -0.11600
C1352       C  0.45097885  0.27765864  0.27458822    -0.10000
H1353       H  0.42720493  0.30480077  0.23600555     0.07900
H1354       H  0.45428788  0.28751350  0.21526271     0.11600
H1355       H  0.47714681  0.25780090  0.27087377     0.11300
H1356       H  0.45065266  0.27501680  0.29119892     0.07900
C1357       C  0.45832770  0.30394555  0.48965222    -0.11200
C1358       C  0.44286116  0.29596693  0.47630207     0.05900
C1359       C  0.43627080  0.27537254  0.47915795    -0.10000
C1360       C  0.44582874  0.26270482  0.49388187    -0.11600
C1361       C  0.46185482  0.27039938  0.50649849    -0.01400
C1362       C  0.46770643  0.29125644  0.50469080    -0.10500
C1363       C  0.43418450  0.30849308  0.45882978     0.06000
H1364       H  0.42403071  0.26882709  0.46962489     0.07900
H1365       H  0.44118121  0.24660191  0.49495625     0.11300
H1366       H  0.48036108  0.29734808  0.51399196     0.11600
H1367       H  0.46388790  0.31966375  0.48782413     0.07900
C1368       C  0.43023432  0.32986430  0.46098569    -0.11200
C1369       C  0.42102405  0.34109557  0.44472944    -0.10500
C1370       C  0.41551639  0.33117796  0.42600005    -0.01400
C1371       C  0.42022972  0.31002202  0.42361890    -0.11600
C1372       C  0.42949333  0.29889248  0.43972563    -0.10000
H1373       H  0.43362652  0.33777270  0.47545989     0.07900
H1374       H  0.41758971  0.35736669  0.44709083     0.11600
H1375       H  0.41647013  0.30189734  0.40934443     0.11300
H1376       H  0.43289720  0.28264197  0.43719209     0.07900
C1377       C  0.52375067  0.02495495  0.29160629    -0.11200
C1378       C  0.51420577  0.03549820  0.30817670     0.05900
C1379       C  0.49234452  0.03650185  0.30876690    -0.10000
C1380       C  0.48036128  0.02713638  0.29309678    -0.11600
C1381       C  0.49003190  0.01668277  0.27648376    -0.01400
C1382       C  0.51186825  0.01568286  0.27603357    -0.10500
C1383       C  0.52733550  0.04625465  0.32393828     0.06000
H1384       H  0.48451424  0.04447890  0.32136520     0.07900
H1385       H  0.46358630  0.02819466  0.29393158     0.11300
H1386       H  0.51993835  0.00786524  0.26348458     0.11600
H1387       H  0.54051834  0.02429697  0.29034720     0.07900
C1388       C  0.54615965  0.03736563  0.33063717    -0.11200
C1389       C  0.56025371  0.04879631  0.34262411    -0.10500
C1390       C  0.55579702  0.06936841  0.34831349    -0.01400
C1391       C  0.53628845  0.07770788  0.34294177    -0.11600
C1392       C  0.52223218  0.06629749  0.33086058    -0.10000
H1393       H  0.55032982  0.02175355  0.32599485     0.07900
H1394       H  0.57499144  0.04178902  0.34670127     0.11600
H1395       H  0.53227254  0.09347950  0.34715121     0.11300
H1396       H  0.50792133  0.07363739  0.32595065     0.07900
C1397       C  0.71013938  0.04747661  0.26879992    -0.11200
C1398       C  0.71584642  0.05824782  0.28690818     0.05900
C1399       C  0.73667635  0.05724635  0.29361164    -0.10000
C1400       C  0.75116237  0.04476548  0.28301648    -0.11600
C1401       C  0.74503767  0.03309184  0.26554612    -0.01400
C1402       C  0.72448919  0.03510022  0.25829090    -0.10500
C1403       C  0.69964412  0.06919257  0.29931687     0.06000
H1404       H  0.74152371  0.06534962  0.30756190     0.07900
H1405       H  0.76685405  0.04357519  0.28900400     0.11300
H1406       H  0.71924509  0.02663984  0.24469671     0.11600
H1407       H  0.69436229  0.04828508  0.26295660     0.07900
C1408       C  0.70330164  0.08880858  0.30820527    -0.11200
C1409       C  0.68784120  0.09868163  0.32004734    -0.10500
C1410       C  0.66860173  0.08892999  0.32352507    -0.01400
C1411       C  0.66497292  0.06940064  0.31453097    -0.11600
C1412       C  0.68023082  0.05971611  0.30252346    -0.10000
H1413       H  0.71806366  0.09652957  0.30591557     0.07900
H1414       H  0.69112375  0.11367135  0.32692514     0.11600
H1415       H  0.65032097  0.06148561  0.31691149     0.11300
H1416       H  0.67698794  0.04450555  0.29613329     0.07900
C1417       C  0.66859759  0.20442224  0.42898564    -0.11200
C1418       C  0.68747059  0.21037681  0.41990588     0.05900
C1419       C  0.69389625  0.20072299  0.40136804    -0.10000
C1420       C  0.68160083  0.18521958  0.39215900    -0.11600
C1421       C  0.66311957  0.17871116  0.40178117    -0.01400
C1422       C  0.65667863  0.18860245  0.42016717    -0.10500
C1423       C  0.70096628  0.22530102  0.43105899     0.06000
H1424       H  0.70848358  0.20503088  0.39419795     0.07900
H1425       H  0.68689557  0.17779290  0.37799326     0.11300
H1426       H  0.64243019  0.18398404  0.42781791     0.11600
H1427       H  0.66346739  0.21149987  0.44339772     0.07900
C1428       C  0.69323799  0.24480012  0.43705489    -0.11200
C1429       C  0.70440991  0.25729615  0.45096020    -0.10500
C1430       C  0.72317290  0.25019839  0.45954038    -0.01400
C1431       C  0.73138174  0.23115593  0.45272341    -0.11600
C1432       C  0.72048689  0.21893026  0.43839042    -0.10000
H1433       H  0.67816069  0.24994575  0.43162924     0.07900
H1434       H  0.69772231  0.27187378  0.45603626     0.11600
H1435       H  0.74587920  0.22540745  0.45904745     0.11300
H1436       H  0.72664719  0.20387941  0.43409435     0.07900
C1437       C  0.55344551  0.18774927  0.30622288    -0.11200
C1438       C  0.56329213  0.19093971  0.28699426     0.05900
C1439       C  0.58388143  0.18394335  0.28449396    -0.10000
C1440       C  0.59399901  0.17328415  0.30062026    -0.11600
C1441       C  0.58369100  0.16938275  0.31949727    -0.01400
C1442       C  0.56341929  0.17704595  0.32215617    -0.10500
C1443       C  0.55168462  0.20134313  0.26985727     0.06000
H1444       H  0.59192653  0.18615547  0.26990362     0.07900
H1445       H  0.60961683  0.16753574  0.29807555     0.11300
H1446       H  0.55509532  0.17459494  0.33656023     0.11600
H1447       H  0.53786502  0.19349209  0.30899561     0.07900
C1448       C  0.53029208  0.19751702  0.26737405    -0.11200
C1449       C  0.51844972  0.20917249  0.25352869    -0.10500
C1450       C  0.52773865  0.22455157  0.24136977    -0.01400
C1451       C  0.54933469  0.22748966  0.24255701    -0.11600
C1452       C  0.56123969  0.21601589  0.25679989    -0.10000
H1453       H  0.52252579  0.18588199  0.27662540     0.07900
H1454       H  0.50182836  0.20653882  0.25268449     0.11600
H1455       H  0.55675244  0.23940045  0.23336507     0.11300
H1456       H  0.57767206  0.21934804  0.25830158     0.07900
C1457       C  0.56219937  0.16479249  0.46863750    -0.11200
C1458       C  0.54083152  0.16789604  0.46514078     0.05900
C1459       C  0.53185396  0.15943163  0.44703633    -0.10000
C1460       C  0.54409801  0.14931549  0.43223077    -0.11600
C1461       C  0.56558613  0.14705523  0.43529409    -0.01400
C1462       C  0.57441937  0.15438220  0.45392638    -0.10500
C1463       C  0.52827840  0.18131472  0.47928959     0.06000
H1464       H  0.51536809  0.16099150  0.44405325     0.07900
H1465       H  0.53677022  0.14361788  0.41816407     0.11300
H1466       H  0.59095510  0.15291336  0.45673009     0.11600
H1467       H  0.56971293  0.17123739  0.48226282     0.07900
C1468       C  0.53186686  0.18192363  0.50090206    -0.11200
C1469       C  0.52081621  0.19576942  0.51367344    -0.10500
C1470       C  0.50596904  0.20925823  0.50507351    -0.01400
C1471       C  0.50205095  0.20814849  0.48358582    -0.11600
C1472       C  0.51309896  0.19452608  0.47091266    -0.10000
H1473       H  0.54328647  0.17181152  0.50792726     0.07900
H1474       H  0.52420698  0.19620084  0.53015959     0.11600
H1475       H  0.49075230  0.21823080  0.47631072     0.11300
H1476       H  0.51016428  0.19492386  0.45434823     0.07900
C1477       C  0.69113651  0.00491691  0.45948503    -0.11200
C1478       C  0.69185951  0.02672582  0.46016886     0.05900
C1479       C  0.70859295  0.03627881  0.47048563    -0.10000
C1480       C  0.72439158  0.02440931  0.47944243    -0.11600
C1481       C  0.72396152  0.00261812  0.47835779    -0.01400
C1482       C  0.70698634  0.99299899  0.46847423    -0.10500
C1483       C  0.67606220  0.03956354  0.44910258     0.06000
H1484       H  0.70987851  0.05299441  0.47106711     0.07900
H1485       H  0.73715034  0.03242528  0.48697146     0.11300
H1486       H  0.70603921  0.97627678  0.46747169     0.11600
H1487       H  0.67833373  0.99703079  0.45189812     0.07900
C1488       C  0.66861999  0.03342508  0.42947304    -0.11200
C1489       C  0.65555710  0.04641504  0.41800485    -0.10500
C1490       C  0.64966868  0.06595994  0.42577764    -0.01400
C1491       C  0.65639420  0.07177905  0.44576630    -0.11600
C1492       C  0.66937905  0.05870337  0.45731160    -0.10000
H1493       H  0.67361659  0.01896118  0.42252562     0.07900
H1494       H  0.65074745  0.04144035  0.40263620     0.11600
H1495       H  0.65202021  0.08663685  0.45230054     0.11300
H1496       H  0.67449225  0.06376000  0.47255269     0.07900
C1497       C  0.18347462  0.43115842  0.54632451    -0.11200
C1498       C  0.17952813  0.45222187  0.55040418     0.05900
C1499       C  0.16257727  0.45756080  0.56313254    -0.10000
C1500       C  0.15103334  0.44202163  0.57307317    -0.11600
C1501       C  0.15647090  0.42105802  0.57049649    -0.01400
C1502       C  0.17224552  0.41576311  0.55645200    -0.10500
C1503       C  0.19480690  0.46799414  0.54346439     0.06000
H1504       H  0.15918554  0.47366329  0.56651590     0.07900
H1505       H  0.13894577  0.44643028  0.58393746     0.11300
H1506       H  0.17653208  0.39969019  0.55404608     0.11600
H1507       H  0.19608854  0.42658703  0.53614455     0.07900
C1508       C  0.21607788  0.46367071  0.54566476    -0.11200
C1509       C  0.23097406  0.47733342  0.53821379    -0.10500
C1510       C  0.22510182  0.49585648  0.52848760    -0.01400
C1511       C  0.20386357  0.50092431  0.52722926    -0.11600
C1512       C  0.18876372  0.48703152  0.53468599    -0.10000
H1513       H  0.22125431  0.44948202  0.55298139     0.07900
H1514       H  0.24722582  0.47315825  0.53969830     0.11600
H1515       H  0.19895417  0.51508846  0.51969920     0.11300
H1516       H  0.17244788  0.49080282  0.53295466     0.07900
C1517       C  0.04938420  0.27494467  0.71944313    -0.11200
C1518       C  0.06360404  0.28863416  0.72875450     0.05900
C1519       C  0.06286052  0.29165377  0.75039217    -0.10000
C1520       C  0.04782299  0.28151030  0.76238704    -0.11600
C1521       C  0.03310684  0.26844173  0.75286549    -0.01400
C1522       C  0.03433575  0.26499808  0.73132632    -0.10500
C1523       C  0.07831987  0.30033058  0.71549966     0.06000
H1524       H  0.07376304  0.30200170  0.75796795     0.07900
H1525       H  0.04728847  0.28443808  0.77896024     0.11300
H1526       H  0.02334732  0.25492416  0.72349889     0.11600
H1527       H  0.04939553  0.27247781  0.70278414     0.07900
C1528       C  0.08818931  0.29038513  0.69875990    -0.11200
C1529       C  0.09958024  0.30175956  0.68434514    -0.10500
C1530       C  0.10148121  0.32336517  0.68636649    -0.01400
C1531       C  0.09262438  0.33322365  0.70376619    -0.11600
C1532       C  0.08110367  0.32179230  0.71820970    -0.10000
H1533       H  0.08659733  0.27381766  0.69648197     0.07900
H1534       H  0.10640857  0.29366946  0.67124805     0.11600
H1535       H  0.09375092  0.34987285  0.70568482     0.11300
H1536       H  0.07351293  0.32988183  0.73087740     0.07900
C1537       C  0.04212397  0.27756719  0.53169020    -0.11200
C1538       C  0.04400083  0.29891176  0.52775997     0.05900
C1539       C  0.03586827  0.30678861  0.50903201    -0.10000
C1540       C  0.02545912  0.29369515  0.49500782    -0.11600
C1541       C  0.02276027  0.27262263  0.49966212    -0.01400
C1542       C  0.03144475  0.26468196  0.51796781    -0.10500
C1543       C  0.05436072  0.31257540  0.54335528     0.06000
H1544       H  0.03694886  0.32314246  0.50550189     0.07900
H1545       H  0.01873289  0.30019287  0.48104000     0.11300
H1546       H  0.02980011  0.24842382  0.52179465     0.11600
H1547       H  0.04883106  0.27072088  0.54548504     0.07900
C1548       C  0.05269123  0.30812612  0.56470070    -0.11200
C1549       C  0.06428103  0.31917402  0.57931118    -0.10500
C1550       C  0.07730889  0.33537353  0.57303422    -0.01400
C1551       C  0.07798772  0.34088271  0.55196879    -0.11600
C1552       C  0.06675386  0.32945495  0.53720357    -0.10000
H1553       H  0.04271404  0.29578831  0.57015690     0.07900
H1554       H  0.06329643  0.31485963  0.59553888     0.11600
H1555       H  0.08804943  0.35329408  0.54680482     0.11300
H1556       H  0.06850555  0.33329707  0.52094394     0.07900
C1557       C  0.22764925  0.44719834  0.71828324    -0.11200
C1558       C  0.23586859  0.43167588  0.70535026     0.05900
C1559       C  0.25756109  0.43071267  0.70251165    -0.10000
C1560       C  0.27065193  0.44529556  0.71209212    -0.11600
C1561       C  0.26222703  0.46115172  0.72454947    -0.01400
C1562       C  0.24061379  0.46166270  0.72776013    -0.10500
C1563       C  0.22146322  0.41769099  0.69391182     0.06000
H1564       H  0.26437705  0.41881761  0.69274111     0.07900
H1565       H  0.28723505  0.44445348  0.70935856     0.11300
H1566       H  0.23352284  0.47355421  0.73734217     0.11600
H1567       H  0.21103914  0.44870162  0.72051697     0.07900
C1568       C  0.20296571  0.41084131  0.70331128    -0.11200
C1569       C  0.18776439  0.40059896  0.69166957    -0.10500
C1570       C  0.19083769  0.39670311  0.67041520    -0.01400
C1571       C  0.20985086  0.40241262  0.66129042    -0.11600
C1572       C  0.22497861  0.41285922  0.67289651    -0.10000
H1573       H  0.19997793  0.41391221  0.71959729     0.07900
H1574       H  0.17342034  0.39613815  0.69922247     0.11600
H1575       H  0.21271503  0.39959665  0.64493373     0.11300
H1576       H  0.23893952  0.41806800  0.66512735     0.07900
C1577       C  0.22166357  0.27322359  0.54078126    -0.11200
C1578       C  0.21112694  0.26409054  0.55753812     0.05900
C1579       C  0.20901295  0.24234260  0.55779361    -0.10000
C1580       C  0.21687546  0.23017911  0.54143972    -0.11600
C1581       C  0.22696864  0.23953883  0.52451408    -0.01400
C1582       C  0.22952971  0.26116323  0.52462748    -0.10500
C1583       C  0.20119202  0.27762811  0.57356347     0.06000
H1584       H  0.20115511  0.23472813  0.57052109     0.07900
H1585       H  0.21470201  0.21354399  0.54186277     0.11300
H1586       H  0.23728567  0.26897492  0.51194713     0.11600
H1587       H  0.22320795  0.28988002  0.53962843     0.07900
C1588       C  0.21015469  0.29684016  0.57889200    -0.11200
C1589       C  0.19899362  0.31149292  0.59037249    -0.10500
C1590       C  0.17872822  0.30716887  0.59719035    -0.01400
C1591       C  0.17052506  0.28725819  0.59364001    -0.11600
C1592       C  0.18158797  0.27267639  0.58185942    -0.10000
H1593       H  0.22553694  0.30093612  0.57347850     0.07900
H1594       H  0.20596800  0.32651754  0.59320451     0.11600
H1595       H  0.15503462  0.28333482  0.59889384     0.11300
H1596       H  0.17415071  0.25807830  0.57816173     0.07900
C1597       C  0.03969300  0.45493032  0.71215282    -0.11200
C1598       C  0.03322847  0.45245321  0.69144632     0.05900
C1599       C  0.01340539  0.45962334  0.68562885    -0.10000
C1600       C  0.00088423  0.47020043  0.70005347    -0.11600
C1601       C  0.00809495  0.47376865  0.72039747    -0.01400
C1602       C  0.02738213  0.46554561  0.72638072    -0.10500
C1603       C  0.04772467  0.44289259  0.67625718     0.06000
H1604       H  0.00796395  0.45777026  0.66980852     0.07900
H1605       H  0.98600767  0.47630426  0.69507618     0.11300
H1606       H  0.03318272  0.46760791  0.74205726     0.11600
H1607       H  0.05453804  0.44890764  0.71733054     0.07900
C1608       C  0.06903563  0.44761598  0.67741907    -0.11200
C1609       C  0.08345276  0.43643273  0.66579833    -0.10500
C1610       C  0.07685809  0.42066895  0.65233516    -0.01400
C1611       C  0.05547618  0.41703506  0.64971259    -0.11600
C1612       C  0.04095858  0.42802003  0.66171983    -0.10000
H1613       H  0.07466186  0.45946466  0.68797341     0.07900
H1614       H  0.09986796  0.43962666  0.66784081     0.11600
H1615       H  0.05011835  0.40481935  0.63943844     0.11300
H1616       H  0.02463538  0.42409291  0.66046947     0.07900
C1617       C  0.64658169  0.47281734  0.23839063    -0.11200
C1618       C  0.63458078  0.48544552  0.25153910     0.05900
C1619       C  0.64475587  0.49810858  0.26618073    -0.10000
C1620       C  0.66652780  0.49819295  0.26754440    -0.11600
C1621       C  0.67853353  0.48531361  0.25455063    -0.01400
C1622       C  0.66825871  0.47263279  0.23997192    -0.10500
C1623       C  0.61152036  0.48512955  0.24998411     0.06000
H1624       H  0.63585423  0.50806771  0.27643366     0.07900
H1625       H  0.67393041  0.50810404  0.27897630     0.11300
H1626       H  0.67697578  0.46255406  0.22968169     0.11600
H1627       H  0.63913581  0.46278438  0.22708806     0.07900
C1628       C  0.60172367  0.48670573  0.23052734    -0.11200
C1629       C  0.58004786  0.48564424  0.22887866    -0.10500
C1630       C  0.56766752  0.48258382  0.24661461    -0.01400
C1631       C  0.57748784  0.48106597  0.26610122    -0.11600
C1632       C  0.59916982  0.48253376  0.26778663    -0.10000
H1633       H  0.61087520  0.48881796  0.21657141     0.07900
H1634       H  0.57300655  0.48683632  0.21363387     0.11600
H1635       H  0.56840275  0.47881176  0.28007178     0.11300
H1636       H  0.60634244  0.48113786  0.28295436     0.07900
C1637       C  0.72906119  0.39403748  0.50796708    -0.11200
C1638       C  0.74274137  0.38249107  0.49546968     0.05900
C1639       C  0.75656196  0.39309878  0.48237431    -0.10000
C1640       C  0.75671761  0.41480789  0.48179050    -0.11600
C1641       C  0.74277467  0.42642791  0.49401383    -0.01400
C1642       C  0.72893985  0.41574734  0.50711293    -0.10500
C1643       C  0.74220759  0.35944767  0.49559521     0.06000
H1644       H  0.76733465  0.38455158  0.47265093     0.07900
H1645       H  0.76758228  0.42247732  0.47153008     0.11300
H1646       H  0.71805619  0.42416765  0.51681122     0.11600
H1647       H  0.71815936  0.38622751  0.51808792     0.07900
C1648       C  0.74323170  0.34833249  0.51432922    -0.11200
C1649       C  0.74292503  0.32657313  0.51423138    -0.10500
C1650       C  0.74110198  0.31552456  0.49541886    -0.01400
C1651       C  0.73979672  0.32674131  0.47674971    -0.11600
C1652       C  0.74055249  0.34840921  0.47682872    -0.10000
H1653       H  0.74456927  0.35649737  0.52900857     0.07900
H1654       H  0.74390890  0.31840901  0.52887582     0.11600
H1655       H  0.73846955  0.31875306  0.46197599     0.11300
H1656       H  0.73958040  0.35659920  0.46219338     0.07900
C1657       C  0.86524985  0.48615161  0.74235922    -0.11200
C1658       C  0.87564233  0.50527726  0.74365417     0.05900
C1659       C  0.86386996  0.52359242  0.74456424    -0.10000
C1660       C  0.84211119  0.52279969  0.74383800    -0.11600
C1661       C  0.83172180  0.50365119  0.74274777    -0.01400
C1662       C  0.84350814  0.48533156  0.74217738    -0.10500
C1663       C  0.89870507  0.50596543  0.74391296     0.06000
H1664       H  0.87152740  0.53851530  0.74549158     0.07900
H1665       H  0.83338287  0.53714902  0.74441146     0.11300
H1666       H  0.83590155  0.47038241  0.74125271     0.11600
H1667       H  0.87398732  0.47180593  0.74174417     0.07900
C1668       C  0.90948100  0.51709605  0.75934722    -0.11200
C1669       C  0.93126586  0.51648715  0.76027553    -0.10500
C1670       C  0.94268254  0.50490662  0.74562922    -0.01400
C1671       C  0.93178839  0.49444447  0.72975108    -0.11600
C1672       C  0.91009430  0.49487234  0.72899200    -0.10000
H1673       H  0.90100962  0.52573740  0.77105984     0.07900
H1674       H  0.93910879  0.52474702  0.77268417     0.11600
H1675       H  0.93997603  0.48550359  0.71806754     0.11300
H1676       H  0.90215866  0.48640000  0.71677562     0.07900
C1677       C  0.40969796  0.50465391  0.73503802    -0.11200
C1678       C  0.39816509  0.48822686  0.74348018     0.05900
C1679       C  0.40889269  0.47140150  0.75229781    -0.10000
C1680       C  0.43068204  0.47127617  0.75307485    -0.11600
C1681       C  0.44215348  0.48778272  0.74468531    -0.01400
C1682       C  0.43141185  0.50436328  0.73549700    -0.10500
C1683       C  0.37504632  0.48898079  0.74338658     0.06000
H1684       H  0.40041659  0.45857373  0.75901755     0.07900
H1685       H  0.43855996  0.45824948  0.76015804     0.11300
H1686       H  0.43980435  0.51735333  0.72897831     0.11600
H1687       H  0.40189759  0.51772016  0.72794318     0.07900
C1688       C  0.36464008  0.50745750  0.74851511    -0.11200
C1689       C  0.34293721  0.50842696  0.74827210    -0.10500
C1690       C  0.33104056  0.49097177  0.74274838    -0.01400
C1691       C  0.34144679  0.47245269  0.73759904    -0.11600
C1692       C  0.36321135  0.47144125  0.73803050    -0.10000
H1693       H  0.37331567  0.52116388  0.75294561     0.07900
H1694       H  0.33549923  0.52294735  0.75232380     0.11600
H1695       H  0.33278801  0.45869780  0.73330021     0.11300
H1696       H  0.37080559  0.45703560  0.73384835     0.07900
C1697       C  0.76771095  0.85592450  0.48415778    -0.11200
C1698       C  0.75418933  0.86812381  0.49620921     0.05900
C1699       C  0.73959908  0.85826542  0.50902075    -0.10000
C1700       C  0.73850863  0.83662792  0.50978361    -0.11600
C1701       C  0.75171572  0.82434516  0.49742581    -0.01400
C1702       C  0.76635308  0.83424617  0.48459512    -0.10500
C1703       C  0.75510655  0.89109219  0.49540159     0.06000
H1704       H  0.72912583  0.86735035  0.51857733     0.07900
H1705       H  0.72706426  0.82952704  0.51982770     0.11300
H1706       H  0.77683542  0.82524471  0.47497407     0.11600
H1707       H  0.77906919  0.86319421  0.47413052     0.07900
C1708       C  0.77389173  0.90160949  0.49893568    -0.11200
C1709       C  0.77449436  0.92332642  0.49902624    -0.10500
C1710       C  0.75639045  0.93497909  0.49517902    -0.01400
C1711       C  0.73769665  0.92435101  0.49119335    -0.11600
C1712       C  0.73703465  0.90266435  0.49150346    -0.10000
H1713       H  0.78801129  0.89300970  0.50205506     0.07900
H1714       H  0.78916937  0.93098673  0.50205059     0.11600
H1715       H  0.72346692  0.93279137  0.48816195     0.11300
H1716       H  0.72239151  0.89488167  0.48860219     0.07900
C1717       C  0.49191505  0.75945313  0.39261478    -0.11200
C1718       C  0.50561227  0.74608604  0.38208576     0.05900
C1719       C  0.51793282  0.73241171  0.39378737    -0.10000
C1720       C  0.51653976  0.73204905  0.41551190    -0.11600
C1721       C  0.50297828  0.74555296  0.42609869    -0.01400
C1722       C  0.49072135  0.75930107  0.41435777    -0.10500
C1723       C  0.50682791  0.74610413  0.35897209     0.06000
H1724       H  0.52844929  0.72175918  0.38608807     0.07900
H1725       H  0.52623723  0.72128659  0.42401708     0.11300
H1726       H  0.48007613  0.76989147  0.42195760     0.11600
H1727       H  0.48229489  0.77021674  0.38401755     0.07900
C1728       C  0.48861301  0.74594945  0.34687510    -0.11200
C1729       C  0.48973336  0.74449659  0.32517902    -0.10500
C1730       C  0.50908308  0.74369037  0.31509057    -0.01400
C1731       C  0.52730476  0.74469442  0.32708736    -0.11600
C1732       C  0.52618962  0.74564150  0.34882380    -0.10000
H1733       H  0.47348543  0.74621981  0.35424560     0.07900
H1734       H  0.47545560  0.74378701  0.31626382     0.11600
H1735       H  0.54240912  0.74394733  0.31969446     0.11300
H1736       H  0.54047769  0.74592444  0.35773660     0.07900
C1737       C  0.48814364  0.76225912  0.84980593    -0.11200
C1738       C  0.50095537  0.74838392  0.86069148     0.05900
C1739       C  0.51365114  0.73466150  0.84941911    -0.10000
C1740       C  0.51346537  0.73473143  0.82770445    -0.11600
C1741       C  0.50036927  0.74834309  0.81678216    -0.01400
C1742       C  0.48775451  0.76215683  0.82807188    -0.10500
C1743       C  0.50084616  0.74799995  0.88373268     0.06000
H1744       H  0.52383174  0.72395196  0.85742370     0.07900
H1745       H  0.52337568  0.72389091  0.81948020     0.11300
H1746       H  0.47759578  0.77291866  0.82011706     0.11600
H1747       H  0.47810530  0.77290944  0.85812529     0.07900
C1748       C  0.50143115  0.76654412  0.89523937    -0.11200
C1749       C  0.50131744  0.76613263  0.91696780    -0.10500
C1750       C  0.50025953  0.74718136  0.92759549    -0.01400
C1751       C  0.49951182  0.72864876  0.91608652    -0.11600
C1752       C  0.49998088  0.72904687  0.89437932    -0.10000
H1753       H  0.50224744  0.78135353  0.88741426     0.07900
H1754       H  0.50185037  0.78065228  0.92545565     0.11600
H1755       H  0.49881920  0.71381073  0.92387336     0.11300
H1756       H  0.49934712  0.71453254  0.88588928     0.07900
C1757       C  0.77393463  0.09765397  0.99055419    -0.11200
C1758       C  0.76196114  0.10966761  0.00431217     0.05900
C1759       C  0.74924512  0.09958900  0.01884732    -0.10000
C1760       C  0.74822803  0.07790015  0.01932905    -0.11600
C1761       C  0.76021241  0.06584728  0.00553546    -0.01400
C1762       C  0.77320239  0.07600199  0.99126231    -0.10500
C1763       C  0.76224919  0.13263061  0.00293775     0.06000
H1764       H  0.73974305  0.10850923  0.02951275     0.07900
H1765       H  0.73810539  0.07057304  0.03055509     0.11300
H1766       H  0.78258344  0.06721979  0.98038337     0.11600
H1767       H  0.78393732  0.10505631  0.97926568     0.07900
C1768       C  0.76496439  0.14500785  0.02076142    -0.11200
C1769       C  0.76528229  0.16668400  0.01921432    -0.10500
C1770       C  0.76248298  0.17638209  0.99986009    -0.01400
C1771       C  0.75968421  0.16390614  0.98209910    -0.11600
C1772       C  0.75971357  0.14231321  0.98360782    -0.10000
H1773       H  0.76706866  0.13788908  0.03583419     0.07900
H1774       H  0.76746060  0.17583531  0.03319061     0.11600
H1775       H  0.75757570  0.17081819  0.96693332     0.11300
H1776       H  0.75744066  0.13313498  0.96965868     0.07900
C1777       C  0.14753973  0.98173531  0.75350508    -0.11200
C1778       C  0.13684378  0.00014283  0.74816545     0.05900
C1779       C  0.14901935  0.01764598  0.74312713    -0.10000
C1780       C  0.17080130  0.01685955  0.74378442    -0.11600
C1781       C  0.18119056  0.99838640  0.74870553    -0.01400
C1782       C  0.16933657  0.98078728  0.75335932    -0.10500
C1783       C  0.11332482  0.00103375  0.74781134     0.06000
H1784       H  0.14193173  0.03204074  0.73834716     0.07900
H1785       H  0.17957962  0.03065464  0.73997508     0.11300
H1786       H  0.17695503  0.96640098  0.75748938     0.11600
H1787       H  0.13927349  0.96796142  0.75818629     0.07900
C1788       C  0.10130646  0.98277726  0.74601957    -0.11200
C1789       C  0.07953971  0.98349489  0.74618405    -0.10500
C1790       C  0.06901403  0.00248546  0.74725124    -0.01400
C1791       C  0.08065407  0.02079852  0.74853590    -0.11600
C1792       C  0.10246983  0.02008691  0.74922877    -0.10000
H1793       H  0.10850556  0.96776064  0.74417411     0.07900
H1794       H  0.07086921  0.96914939  0.74496116     0.11600
H1795       H  0.07284509  0.03564689  0.74957197     0.11300
H1796       H  0.11062266  0.03459112  0.75120178     0.07900
C1797       C  0.01902031  0.74917324  0.14705410    -0.11200
C1798       C  0.00694674  0.73585959  0.13466019     0.05900
C1799       C  0.99383761  0.72145889  0.14443654    -0.10000
C1800       C  0.99236663  0.72084229  0.16618938    -0.11600
C1801       C  0.00433052  0.73431020  0.17862121    -0.01400
C1802       C  0.01789859  0.74826634  0.16876100    -0.10500
C1803       C  0.00782008  0.73733308  0.11161294     0.06000
H1804       H  0.98435120  0.71103844  0.13521534     0.07900
H1805       H  0.98183750  0.70985167  0.17327418     0.11300
H1806       H  0.02731328  0.75888885  0.17781638     0.11600
H1807       H  0.02937561  0.76028982  0.13990104     0.07900
C1808       C  0.00503075  0.75653113  0.10173600    -0.11200
C1809       C  0.00598736  0.75805583  0.08003563    -0.10500
C1810       C  0.01024701  0.74049008  0.06775123    -0.01400
C1811       C  0.01314459  0.72129796  0.07766805    -0.11600
C1812       C  0.01168066  0.71969159  0.09934846    -0.10000
H1813       H  0.00194222  0.77034704  0.11084220     0.07900
H1814       H  0.00379643  0.77307260  0.07289120     0.11600
H1815       H  0.01639243  0.70747531  0.06863469     0.11300
H1816       H  0.01396676  0.70473481  0.10659127     0.07900
C1817       C  0.26953194  0.64174630  0.51403925    -0.11200
C1818       C  0.25324385  0.63003477  0.50532407     0.05900
C1819       C  0.23618316  0.64058407  0.49666829    -0.10000
C1820       C  0.23547017  0.66228259  0.49661834    -0.11600
C1821       C  0.25162914  0.67396939  0.50554375    -0.01400
C1822       C  0.26864382  0.66345732  0.51431709    -0.10500
C1823       C  0.25391625  0.60692206  0.50541674     0.06000
H1824       H  0.22347304  0.63203367  0.48968410     0.07900
H1825       H  0.22212026  0.66992459  0.48981018     0.11300
H1826       H  0.28138555  0.67203476  0.52121910     0.11600
H1827       H  0.28280862  0.63409643  0.52097366     0.07900
C1828       C  0.27232945  0.59620639  0.50051163    -0.11200
C1829       C  0.27289338  0.57448042  0.50060943    -0.10500
C1830       C  0.25511663  0.56292480  0.50585778    -0.01400
C1831       C  0.23672187  0.57367847  0.51080532    -0.11600
C1832       C  0.23610521  0.59537449  0.51047733    -0.10000
H1833       H  0.28626583  0.60464147  0.49637185     0.07900
H1834       H  0.28734959  0.56675093  0.49680303     0.11600
H1835       H  0.22273017  0.56533161  0.51493520     0.11300
H1836       H  0.22174006  0.60314916  0.51453893     0.07900
C1837       C  0.25504139  0.09572974  0.50752872    -0.11200
C1838       C  0.24177002  0.10565769  0.49335930     0.05900
C1839       C  0.22823367  0.09350726  0.48122644    -0.10000
C1840       C  0.22770615  0.07190419  0.48356841    -0.11600
C1841       C  0.24090006  0.06200622  0.49791025    -0.01400
C1842       C  0.25467099  0.07420852  0.50972533    -0.10500
C1843       C  0.24165206  0.12866340  0.49196825     0.06000
H1844       H  0.21773876  0.10076185  0.47027291     0.07900
H1845       H  0.21701254  0.06297032  0.47411157     0.11300
H1846       H  0.26511008  0.06716122  0.52086358     0.11600
H1847       H  0.26580468  0.10465718  0.51691857     0.07900
C1848       C  0.24184019  0.14065781  0.51022499    -0.11200
C1849       C  0.24175526  0.16226837  0.50927991    -0.10500
C1850       C  0.24171275  0.17251350  0.49003997    -0.01400
C1851       C  0.24170381  0.16056069  0.47170098    -0.11600
C1852       C  0.24147722  0.13882540  0.47266097    -0.10000
H1853       H  0.24176771  0.13328744  0.52532090     0.07900
H1854       H  0.24184488  0.17097154  0.52370650     0.11600
H1855       H  0.24159435  0.16799997  0.45664247     0.11300
H1856       H  0.24145290  0.12995560  0.45833590     0.07900
C1857       C  0.98650043  0.73357320  0.60335486    -0.11200
C1858       C  0.00068233  0.74679049  0.61337504     0.05900
C1859       C  0.01334712  0.75976379  0.60133569    -0.10000
C1860       C  0.01174925  0.75963666  0.57964928    -0.11600
C1861       C  0.99770870  0.74624916  0.56955767    -0.01400
C1862       C  0.98514704  0.73317107  0.58166378    -0.10500
C1863       C  0.00222125  0.74703924  0.63634578     0.06000
H1864       H  0.02431029  0.77017652  0.60874493     0.07900
H1865       H  0.02169425  0.76985027  0.57078475     0.11300
H1866       H  0.97414267  0.72271488  0.57438790     0.11600
H1867       H  0.97665919  0.72334775  0.61232889     0.07900
C1868       C  0.98427671  0.74918554  0.64857183    -0.11200
C1869       C  0.98569854  0.74953263  0.67026232    -0.10500
C1870       C  0.00505907  0.74731307  0.68017073    -0.01400
C1871       C  0.02299810  0.74499587  0.66789346    -0.11600
C1872       C  0.02160831  0.74506345  0.64618845    -0.10000
H1873       H  0.96917504  0.75086809  0.64130882     0.07900
H1874       H  0.97160462  0.75135161  0.67928358     0.11600
H1875       H  0.03815383  0.74341551  0.67505850     0.11300
H1876       H  0.03564739  0.74330308  0.63706346     0.07900
C1877       C  0.14969793  0.95160035  0.44598619    -0.11200
C1878       C  0.17118297  0.95046504  0.44985768     0.05900
C1879       C  0.18273181  0.93436292  0.44084506    -0.10000
C1880       C  0.17314088  0.91956973  0.42835356    -0.11600
C1881       C  0.15162193  0.92034426  0.42453694    -0.01400
C1882       C  0.13993192  0.93652465  0.43351186    -0.10500
C1883       C  0.18209931  0.96560434  0.46333551     0.06000
H1884       H  0.19935800  0.93329997  0.44337899     0.07900
H1885       H  0.18272239  0.90744362  0.42170342     0.11300
H1886       H  0.12334646  0.93758798  0.43080348     0.11600
H1887       H  0.14050178  0.96391289  0.45283046     0.07900
C1888       C  0.18141656  0.98698255  0.45927901    -0.11200
C1889       C  0.19491413  0.00059962  0.46975435    -0.10500
C1890       C  0.20920822  0.99296549  0.48444157    -0.01400
C1891       C  0.20876120  0.97173419  0.48933432    -0.11600
C1892       C  0.19542409  0.95826009  0.47890609    -0.10000
H1893       H  0.17129270  0.99295924  0.44724474     0.07900
H1894       H  0.19478050  0.01687229  0.46572284     0.11600
H1895       H  0.21923982  0.96529393  0.50080887     0.11300
H1896       H  0.19606036  0.94187188  0.48246010     0.07900
C1897       C  0.01401888  0.79363985  0.46667414    -0.11200
C1898       C  0.03097690  0.80564898  0.47324228     0.05900
C1899       C  0.03696897  0.80504727  0.49426338    -0.10000
C1900       C  0.02713075  0.79140574  0.50807364    -0.11600
C1901       C  0.01123387  0.77820064  0.50097040    -0.01400
C1902       C  0.00429597  0.78007334  0.48034020    -0.10500
C1903       C  0.04375759  0.81652954  0.45753764     0.06000
H1904       H  0.05004463  0.81415885  0.49968293     0.07900
H1905       H  0.03271990  0.79036484  0.52391513     0.11300
H1906       H  0.99177727  0.77045795  0.47448291     0.11600
H1907       H  0.00884905  0.79410629  0.45065320     0.07900
C1908       C  0.04979165  0.80580396  0.43950297    -0.11200
C1909       C  0.06248249  0.81519450  0.42477333    -0.10500
C1910       C  0.06938900  0.83566124  0.42757393    -0.01400
C1911       C  0.06307032  0.84663270  0.44544623    -0.11600
C1912       C  0.05049602  0.83705551  0.46043189    -0.10000
H1913       H  0.04506373  0.78987163  0.43700817     0.07900
H1914       H  0.06701528  0.80629974  0.41120482     0.11600
H1915       H  0.06821939  0.86240835  0.44805701     0.11300
H1916       H  0.04600961  0.84563696  0.47421344     0.07900
C1917       C  0.06373738  0.77307321  0.25286546    -0.11200
C1918       C  0.06047463  0.77391910  0.27448261     0.05900
C1919       C  0.04294776  0.76405151  0.28280991    -0.10000
C1920       C  0.02865469  0.75415776  0.26986422    -0.11600
C1921       C  0.03145691  0.75381661  0.24816829    -0.01400
C1922       C  0.04939713  0.76304064  0.23982558    -0.10500
C1923       C  0.07420857  0.78630732  0.28833682     0.06000
H1924       H  0.03981388  0.76466193  0.29933879     0.07900
H1925       H  0.01512341  0.74714848  0.27694044     0.11300
H1926       H  0.05213428  0.76290587  0.22322145     0.11600
H1927       H  0.07723411  0.78039601  0.24604532     0.07900
C1928       C  0.07942234  0.77908570  0.30827032    -0.11200
C1929       C  0.08979395  0.79193409  0.32242364    -0.10500
C1930       C  0.09521216  0.81229631  0.31695317    -0.01400
C1931       C  0.09084180  0.81917357  0.29668068    -0.11600
C1932       C  0.08047229  0.80631417  0.28253346    -0.10000
H1933       H  0.07501125  0.76364013  0.31309300     0.07900
H1934       H  0.09303733  0.78609477  0.33784745     0.11600
H1935       H  0.09475273  0.83478026  0.29194794     0.11300
H1936       H  0.07645953  0.81240735  0.26739182     0.07900
C1937       C  0.18087595  0.77316253  0.41669619    -0.11200
C1938       C  0.19496128  0.78033212  0.43191633     0.05900
C1939       C  0.19710887  0.80191301  0.43464244    -0.10000
C1940       C  0.18577175  0.81581916  0.42252908    -0.11600
C1941       C  0.17146915  0.80865926  0.40768289    -0.01400
C1942       C  0.16909190  0.78717428  0.40488080    -0.10500
C1943       C  0.20707462  0.76567945  0.44532174     0.06000
H1944       H  0.20716916  0.80823686  0.44655668     0.07900
H1945       H  0.18768096  0.83227561  0.42534006     0.11300
H1946       H  0.15817444  0.78121923  0.39351522     0.11600
H1947       H  0.17893735  0.75674008  0.41384068     0.07900
C1948       C  0.19896117  0.74624527  0.45125516    -0.11200
C1949       C  0.20980281  0.73348218  0.46522564    -0.10500
C1950       C  0.22872535  0.74009200  0.47386397    -0.01400
C1951       C  0.23713352  0.75908423  0.46745296    -0.11600
C1952       C  0.22665984  0.77151941  0.45317564    -0.10000
H1953       H  0.18389216  0.74117878  0.44576687     0.07900
H1954       H  0.20295506  0.71892447  0.46999345     0.11600
H1955       H  0.25187937  0.76441878  0.47360990     0.11300
H1956       H  0.23393966  0.78587622  0.44849826     0.07900
C1957       C  0.30902261  0.93438040  0.69316778    -0.11200
C1958       C  0.29099916  0.92391952  0.69957042     0.05900
C1959       C  0.28823335  0.90316995  0.69331072    -0.10000
C1960       C  0.30344073  0.89308516  0.68116272    -0.11600
C1961       C  0.32148015  0.90371973  0.67480876    -0.01400
C1962       C  0.32396491  0.92448625  0.68099920    -0.10500
C1963       C  0.27562519  0.93515914  0.71281300     0.06000
H1964       H  0.27448831  0.89471951  0.69802510     0.07900
H1965       H  0.30097381  0.87712492  0.67653746     0.11300
H1966       H  0.33755609  0.93324912  0.67640618     0.11600
H1967       H  0.31148843  0.95045352  0.69740640     0.07900
C1968       C  0.28287985  0.94763714  0.72918259    -0.11200
C1969       C  0.26960427  0.96134421  0.73942006    -0.10500
C1970       C  0.24855962  0.96303412  0.73368130    -0.01400
C1971       C  0.24077376  0.94934399  0.71845622    -0.11600
C1972       C  0.25423071  0.93548673  0.70808101    -0.10000
H1973       H  0.29915491  0.94739889  0.73354329     0.07900
H1974       H  0.27611836  0.97125921  0.75137590     0.11600
H1975       H  0.22462288  0.95015737  0.71375765     0.11300
H1976       H  0.24818350  0.92597531  0.69557083     0.07900
C1977       C  0.29679933  0.99113112  0.55224299    -0.11200
C1978       C  0.30523701  0.97356824  0.54218856     0.05900
C1979       C  0.29893206  0.96922161  0.52168254    -0.10000
C1980       C  0.28356607  0.98103126  0.51210014    -0.11600
C1981       C  0.27462309  0.99796875  0.52241515    -0.01400
C1982       C  0.28175283  0.00337933  0.54231607    -0.10500
C1983       C  0.31936469  0.95892072  0.55325979     0.06000
H1984       H  0.30555528  0.95638362  0.51308046     0.07900
H1985       H  0.27847809  0.97679331  0.49659608     0.11300
H1986       H  0.27495421  0.01639127  0.55054250     0.11600
H1987       H  0.30111171  0.99492641  0.56806739     0.07900
C1988       C  0.33345438  0.96578854  0.56857135    -0.11200
C1989       C  0.34575368  0.95155683  0.57951181    -0.10500
C1990       C  0.34441363  0.93021106  0.57516892    -0.01400
C1991       C  0.33076753  0.92345748  0.55953769    -0.11600
C1992       C  0.31827675  0.93754162  0.54893276    -0.10000
H1993       H  0.33493876  0.98211601  0.57218098     0.07900
H1994       H  0.35612609  0.95723107  0.59151608     0.11600
H1995       H  0.32907600  0.90711474  0.55602268     0.11300
H1996       H  0.30724308  0.93145530  0.53777512     0.07900
C1997       C  0.45244403  0.81733778  0.55581767    -0.11200
C1998       C  0.44917299  0.82007922  0.53432448     0.05900
C1999       C  0.43375777  0.83430641  0.52806350    -0.10000
C2000       C  0.42176785  0.84504838  0.54282624    -0.11600
C2001       C  0.42518139  0.84218284  0.56422489    -0.01400
C2002       C  0.44083321  0.82839124  0.57048041    -0.10500
C2003       C  0.46125656  0.80743742  0.51884286     0.06000
H2004       H  0.43087062  0.83719475  0.51175811     0.07900
H2005       H  0.40981545  0.85558880  0.53749367     0.11300
H2006       H  0.44365096  0.82553951  0.58682598     0.11600
H2007       H  0.46355591  0.80613878  0.56151943     0.07900
C2008       C  0.48128439  0.80008966  0.52379802    -0.11200
C2009       C  0.49142588  0.78586089  0.51091961    -0.10500
C2010       C  0.48223078  0.77911700  0.49231645    -0.01400
C2011       C  0.46305418  0.78757680  0.48635459    -0.11600
C2012       C  0.45253803  0.80141014  0.49958651    -0.10000
H2013       H  0.48907115  0.80492605  0.53791637     0.07900
H2014       H  0.50638501  0.77980248  0.51570383     0.11600
H2015       H  0.45563120  0.78253957  0.47208472     0.11300
H2016       H  0.43716692  0.80650890  0.49510921     0.07900
C2017       C  0.44810473  0.76691395  0.71658809    -0.11200
C2018       C  0.43736937  0.78461828  0.72331654     0.05900
C2019       C  0.43931334  0.79099947  0.74416316    -0.10000
C2020       C  0.45322909  0.78083280  0.75751624    -0.11600
C2021       C  0.46534251  0.76426121  0.75006484    -0.01400
C2022       C  0.46194673  0.75690302  0.72976848    -0.10500
C2023       C  0.42640601  0.79753104  0.70780288     0.06000
H2024       H  0.43111755  0.80460390  0.74971989     0.07900
H2025       H  0.45543316  0.78669538  0.77314957     0.11300
H2026       H  0.47065402  0.74382278  0.72372840     0.11600
H2027       H  0.44649858  0.76137691  0.70075566     0.07900
C2028       C  0.43635628  0.80202168  0.68893423    -0.11200
C2029       C  0.42671519  0.81436892  0.67409794    -0.10500
C2030       C  0.40677547  0.82248253  0.67766771    -0.01400
C2031       C  0.39667856  0.81795894  0.69650857    -0.11600
C2032       C  0.40650945  0.80569964  0.71156520    -0.10000
H2033       H  0.45185629  0.79623120  0.68577113     0.07900
H2034       H  0.43494584  0.81757532  0.65979194     0.11600
H2035       H  0.38135704  0.82415399  0.69972845     0.11300
H2036       H  0.39855714  0.80246333  0.72601398     0.07900
C2037       C  0.30556165  0.80421523  0.56615254    -0.11200
C2038       C  0.30253018  0.78508582  0.57598556     0.05900
C2039       C  0.31129429  0.78183835  0.59573619    -0.10000
C2040       C  0.32279941  0.79765662  0.60547859    -0.11600
C2041       C  0.32599650  0.81670022  0.59535689    -0.01400
C2042       C  0.31716165  0.81975915  0.57565571    -0.10500
C2043       C  0.29011509  0.76900557  0.56513200     0.06000
H2044       H  0.30911240  0.76720004  0.60361892     0.07900
H2045       H  0.32958896  0.79484310  0.62061642     0.11300
H2046       H  0.31930989  0.83422725  0.56744474     0.11600
H2047       H  0.29918096  0.80704926  0.55083537     0.07900
C2048       C  0.27123763  0.77470923  0.55586867    -0.11200
C2049       C  0.26107938  0.76126270  0.54230860    -0.10500
C2050       C  0.26942150  0.74164516  0.53774115    -0.01400
C2051       C  0.28757224  0.73524197  0.54811262    -0.11600
C2052       C  0.29791087  0.74889689  0.56171890    -0.10000
H2053       H  0.26474486  0.78999626  0.55849498     0.07900
H2054       H  0.24690331  0.76650636  0.53490186     0.11600
H2055       H  0.29430603  0.72018173  0.54489223     0.11300
H2056       H  0.31251767  0.74419857  0.56863664     0.07900
C2057       C  0.98117814  0.24005520  0.35252921    -0.11200
C2058       C  0.99747872  0.24888740  0.36427652     0.05900
C2059       C  0.01439853  0.25762079  0.35344492    -0.10000
C2060       C  0.01510622  0.25727281  0.33171138    -0.11600
C2061       C  0.99861640  0.24887045  0.32022657    -0.01400
C2062       C  0.98159491  0.24038083  0.33077769    -0.10500
C2063       C  0.99686806  0.24901905  0.38759127     0.06000
H2064       H  0.02703314  0.26509546  0.36164247     0.07900
H2065       H  0.02829244  0.26411108  0.32383578     0.11300
H2066       H  0.96878118  0.23363634  0.32216377     0.11600
H2067       H  0.96812137  0.23265130  0.36003135     0.07900
C2068       C  0.97779338  0.24906340  0.39843591    -0.11200
C2069       C  0.97731972  0.24877392  0.42019972    -0.10500
C2070       C  0.99585077  0.24917856  0.43165364    -0.01400
C2071       C  0.01486956  0.24953693  0.42105105    -0.11600
C2072       C  0.01540078  0.24909748  0.39932687    -0.10000
H2073       H  0.96313343  0.24952892  0.39021485     0.07900
H2074       H  0.96246178  0.24857256  0.42811028     0.11600
H2075       H  0.02938118  0.24950044  0.42961121     0.11300
H2076       H  0.03043465  0.24844616  0.39184657     0.07900
C2077       C  0.06088955  0.20908358  0.24708957    -0.11200
C2078       C  0.06243199  0.21538681  0.22623743     0.05900
C2079       C  0.05150358  0.23307541  0.21982458    -0.10000
C2080       C  0.03777158  0.24304261  0.23329542    -0.11600
C2081       C  0.03469532  0.23565266  0.25356956    -0.01400
C2082       C  0.04711072  0.21919630  0.26071422    -0.10500
C2083       C  0.07266743  0.20209927  0.21036954     0.06000
H2084       H  0.05270886  0.23848757  0.20395604     0.07900
H2085       H  0.02872319  0.25594613  0.22746298     0.11300
H2086       H  0.04508281  0.21321561  0.27627999     0.11600
H2087       H  0.06916164  0.19546798  0.25240802     0.07900
C2088       C  0.09280294  0.19407164  0.21311500    -0.11200
C2089       C  0.10168752  0.18115520  0.19786797    -0.10500
C2090       C  0.09039820  0.17578610  0.17985978    -0.01400
C2091       C  0.07028749  0.18389592  0.17729372    -0.11600
C2092       C  0.06160354  0.19688933  0.19227878    -0.10000
H2093       H  0.10162676  0.19784615  0.22695730     0.07900
H2094       H  0.11718299  0.17507009  0.20034701     0.11600
H2095       H  0.06109783  0.18009902  0.16369517     0.11300
H2096       H  0.04592508  0.20256048  0.18990439     0.07900
C2097       C  0.98156785  0.24922748  0.85278767    -0.11200
C2098       C  0.00046403  0.25162516  0.86346899     0.05900
C2099       C  0.01895066  0.25347174  0.85206022    -0.10000
C2100       C  0.01854524  0.25329176  0.83035724    -0.11600
C2101       C  0.99965834  0.25094938  0.81958070    -0.01400
C2102       C  0.98118313  0.24870436  0.83103891    -0.10500
C2103       C  0.00102231  0.25225851  0.88646412     0.06000
H2104       H  0.03369940  0.25542174  0.85996747     0.07900
H2105       H  0.03306436  0.25495852  0.82202357     0.11300
H2106       H  0.96638386  0.24687970  0.82320909     0.11600
H2107       H  0.96713783  0.24759849  0.86128880     0.07900
C2108       C  0.98777554  0.26555643  0.89762352    -0.11200
C2109       C  0.98887359  0.26658303  0.91933847    -0.10500
C2110       C  0.00299391  0.25404293  0.93028248    -0.01400
C2111       C  0.01606907  0.24060488  0.91904001    -0.11600
C2112       C  0.01519320  0.23983805  0.89736964    -0.10000
H2113       H  0.97682111  0.27538859  0.88950446     0.07900
H2114       H  0.97852803  0.27701457  0.92755340     0.11600
H2115       H  0.02713939  0.23076055  0.92697908     0.11300
H2116       H  0.02548536  0.22939007  0.88909820     0.07900
C2117       C  0.04135818  0.17363253  0.05632716    -0.11200
C2118       C  0.04722763  0.17290156  0.03526536     0.05900
C2119       C  0.06327313  0.15921315  0.02938257    -0.10000
C2120       C  0.07389933  0.14753784  0.04437208    -0.11600
C2121       C  0.06852621  0.14911616  0.06552260    -0.01400
C2122       C  0.05170063  0.16178470  0.07115893    -0.10500
C2123       C  0.03765781  0.18765166  0.02017155     0.06000
H2124       H  0.06797673  0.15785963  0.01328244     0.07900
H2125       H  0.08671441  0.13779091  0.03948601     0.11300
H2126       H  0.04717717  0.16347815  0.08728862     0.11600
H2127       H  0.02946054  0.18420617  0.06171141     0.07900
C2128       C  0.01711689  0.19466436  0.02308048    -0.11200
C2129       C  0.00926211  0.21108930  0.01141624    -0.10500
C2130       C  0.02142221  0.22033910  0.99599386    -0.01400
C2131       C  0.04131228  0.21248102  0.99184154    -0.11600
C2132       C  0.04949400  0.19644572  0.00400033    -0.10000
H2133       H  0.00718940  0.18782910  0.03476864     0.07900
H2134       H  0.99367411  0.21666055  0.01449588     0.11600
H2135       H  0.05086557  0.21940915  0.97987225     0.11300
H2136       H  0.06539395  0.19167986  0.00132388     0.07900
C2137       C  0.34403565  0.00997345  0.23159322    -0.11200
C2138       C  0.35594468  0.99804454  0.24539107     0.05900
C2139       C  0.34579190  0.98550571  0.25997414    -0.10000
C2140       C  0.32410130  0.98477025  0.26067952    -0.11600
C2141       C  0.31209380  0.99685126  0.24704329    -0.01400
C2142       C  0.32229895  0.00953277  0.23253281    -0.10500
C2143       C  0.37892768  0.99861528  0.24469701     0.06000
H2144       H  0.35468301  0.97607334  0.27067519     0.07900
H2145       H  0.31674199  0.97487185  0.27206204     0.11300
H2146       H  0.31349279  0.01895208  0.22175999     0.11600
H2147       H  0.35157175  0.01982530  0.22027910     0.07900
C2148       C  0.38957315  0.99513415  0.22596554    -0.11200
C2149       C  0.41132970  0.99481979  0.22557525    -0.10500
C2150       C  0.42281759  0.99837858  0.24385421    -0.01400
C2151       C  0.41207283  0.00224417  0.26249880    -0.11600
C2152       C  0.39036191  0.00218047  0.26294057    -0.10000
H2153       H  0.38103670  0.99224884  0.21172670     0.07900
H2154       H  0.41914648  0.99190891  0.21095240     0.11600
H2155       H  0.42044017  0.00502736  0.27685277     0.11300
H2156       H  0.38245721  0.00501999  0.27753743     0.07900
C2157       C  0.24055814  0.93999285  0.29808926    -0.11200
C2158       C  0.22260434  0.93181795  0.28847538     0.05900
C2159       C  0.21809288  0.93786017  0.26795135    -0.10000
C2160       C  0.23017564  0.95273936  0.25796632    -0.11600
C2161       C  0.24750729  0.96142074  0.26790348    -0.01400
C2162       C  0.25304217  0.95448706  0.28777536    -0.10500
C2163       C  0.20783739  0.91826256  0.30011367     0.06000
H2164       H  0.20493984  0.93144340  0.25966054     0.07900
H2165       H  0.22579943  0.95771427  0.24249657     0.11300
H2166       H  0.26630938  0.96112166  0.29574708     0.11600
H2167       H  0.24450305  0.93597021  0.31392315     0.07900
C2168       C  0.21475940  0.90486031  0.31591635    -0.11200
C2169       C  0.20051580  0.89341718  0.32769680    -0.10500
C2170       C  0.17907072  0.89483413  0.32371362    -0.01400
C2171       C  0.17221868  0.90764836  0.30751272    -0.11600
C2172       C  0.18634397  0.91935222  0.29605624    -0.10000
H2173       H  0.23115213  0.90327430  0.31931460     0.07900
H2174       H  0.20628015  0.88361970  0.34006604     0.11600
H2175       H  0.15579809  0.90932321  0.30420014     0.11300
H2176       H  0.18019429  0.92983884  0.28449242     0.07900
C2177       C  0.23649514  0.05457637  0.20619679    -0.11200
C2178       C  0.21572422  0.05610486  0.21292382     0.05900
C2179       C  0.20931695  0.04417836  0.22995638    -0.10000
C2180       C  0.22280625  0.03000515  0.23911681    -0.11600
C2181       C  0.24318076  0.02750985  0.23166794    -0.01400
C2182       C  0.25015948  0.04041198  0.21555582    -0.10500
C2183       C  0.20010060  0.06835993  0.20115855     0.06000
H2184       H  0.19358594  0.04537277  0.23583656     0.07900
H2185       H  0.21708438  0.02065623  0.25183246     0.11300
H2186       H  0.26582556  0.03889523  0.20958295     0.11600
H2187       H  0.24185776  0.06354727  0.19306555     0.07900
C2188       C  0.20454530  0.08824409  0.19344452    -0.11200
C2189       C  0.18966636  0.09907262  0.18173536    -0.10500
C2190       C  0.17024441  0.09003511  0.17729940    -0.01400
C2191       C  0.16583273  0.07028647  0.18526415    -0.11600
C2192       C  0.18051065  0.05963724  0.19703884    -0.10000
H2193       H  0.21949315  0.09537349  0.19645048     0.07900
H2194       H  0.19354552  0.11422807  0.17570296     0.11600
H2195       H  0.15104056  0.06286711  0.18216604     0.11300
H2196       H  0.17669287  0.04422744  0.20244411     0.07900
C2197       C  0.25471498  0.84803235  0.02878213    -0.11200
C2198       C  0.25075708  0.85834611  0.01000979     0.05900
C2199       C  0.24757846  0.84656389  0.99188584    -0.10000
C2200       C  0.24825225  0.82488153  0.99253380    -0.11600
C2201       C  0.25245709  0.81449688  0.01127485    -0.01400
C2202       C  0.25571795  0.82636397  0.02938717    -0.10500
C2203       C  0.25033347  0.88134341  0.00928570     0.06000
H2204       H  0.24438501  0.85415674  0.97724125     0.07900
H2205       H  0.24564070  0.81627038  0.97829194     0.11300
H2206       H  0.25891976  0.81891888  0.04409938     0.11600
H2207       H  0.25737614  0.85677809  0.04293880     0.07900
C2208       C  0.23848965  0.89276097  0.02365905    -0.11200
C2209       C  0.23840570  0.91446544  0.02315469    -0.10500
C2210       C  0.25047592  0.92522064  0.00849925    -0.01400
C2211       C  0.26229723  0.91372843  0.99411429    -0.11600
C2212       C  0.26208098  0.89203954  0.99439790    -0.10000
H2213       H  0.22919794  0.88486052  0.03520829     0.07900
H2214       H  0.22914262  0.92281851  0.03446763     0.11600
H2215       H  0.27169788  0.92149208  0.98256624     0.11300
H2216       H  0.27143632  0.88359134  0.98322600     0.07900
C2217       C  0.20052704  0.02551435  0.02907562    -0.11200
C2218       C  0.19025489  0.01937196  0.04733912     0.05900
C2219       C  0.19420004  0.99932390  0.05511416    -0.10000
C2220       C  0.20865877  0.98622802  0.04528245    -0.11600
C2221       C  0.21970505  0.99306580  0.02778512    -0.01400
C2222       C  0.21522681  0.01271792  0.01964235    -0.10500
C2223       C  0.17643594  0.03435315  0.05854847     0.06000
H2224       H  0.18673776  0.99401100  0.06915286     0.07900
H2225       H  0.21179775  0.97108846  0.05184794     0.11300
H2226       H  0.22313638  0.01825588  0.00591126     0.11600
H2227       H  0.19739591  0.04041996  0.02202380     0.07900
C2228       C  0.18088463  0.05571228  0.05792267    -0.11200
C2229       C  0.16823908  0.07001521  0.06812408    -0.10500
C2230       C  0.15108045  0.06347894  0.07980792    -0.01400
C2231       C  0.14663682  0.04217629  0.08087073    -0.11600
C2232       C  0.15907094  0.02777045  0.07014140    -0.10000
H2233       H  0.19444216  0.06149197  0.04992064     0.07900
H2234       H  0.17236499  0.08629885  0.06740488     0.11600
H2235       H  0.13353510  0.03672150  0.08983790     0.11300
H2236       H  0.15498191  0.01149699  0.07087061     0.07900
C2237       C  0.26247337  0.34528466  0.99317992    -0.11200
C2238       C  0.24563652  0.35600773  0.00206805     0.05900
C2239       C  0.22924441  0.34458953  0.01078084    -0.10000
C2240       C  0.22981360  0.32290570  0.01087630    -0.11600
C2241       C  0.24656958  0.31215714  0.00184949    -0.01400
C2242       C  0.26282136  0.32356831  0.99285001    -0.10500
C2243       C  0.24505636  0.37903250  0.00210381     0.06000
H2244       H  0.21612640  0.35247386  0.01779991     0.07900
H2245       H  0.21703200  0.31452647  0.01786669     0.11300
H2246       H  0.27597757  0.31570251  0.98588672     0.11600
H2247       H  0.27523591  0.35373141  0.98624210     0.07900
C2248       C  0.26228868  0.39061326  0.00887885    -0.11200
C2249       C  0.26165788  0.41232942  0.00893477    -0.10500
C2250       C  0.24388967  0.42294313  0.00188378    -0.01400
C2251       C  0.22669507  0.41127285  0.99504663    -0.11600
C2252       C  0.22722119  0.38958840  0.99531071    -0.10000
H2253       H  0.27616412  0.38283663  0.01436043     0.07900
H2254       H  0.27516345  0.42079342  0.01434471     0.11600
H2255       H  0.21271740  0.41888665  0.98961200     0.11300
H2256       H  0.21376530  0.38102843  0.98991277     0.07900
C2257       C  0.20197577  0.24288978  0.06300023    -0.11200
C2258       C  0.20581619  0.22150483  0.06429013     0.05900
C2259       C  0.22173438  0.21276915  0.05226793    -0.10000
C2260       C  0.23283943  0.22485044  0.03825380    -0.11600
C2261       C  0.22824729  0.24601859  0.03582861    -0.01400
C2262       C  0.21316278  0.25510953  0.04884941    -0.10500
C2263       C  0.19151474  0.20747801  0.07537446     0.06000
H2264       H  0.22493263  0.19629688  0.05307393     0.07900
H2265       H  0.24457693  0.21736591  0.02878422     0.11300
H2266       H  0.20933850  0.27138962  0.04741845     0.11600
H2267       H  0.18959921  0.24985698  0.07204280     0.07900
C2268       C  0.18944188  0.20768894  0.09711060    -0.11200
C2269       C  0.17714975  0.19265421  0.10703887    -0.10500
C2270       C  0.16669818  0.17741240  0.09526722    -0.01400
C2271       C  0.16840351  0.17788982  0.07347923    -0.11600
C2272       C  0.18067788  0.19264949  0.06371930    -0.10000
H2273       H  0.19775605  0.21904541  0.10635220     0.07900
H2274       H  0.17600710  0.19281275  0.12382708     0.11600
H2275       H  0.16047052  0.16661083  0.06381778     0.11300
H2276       H  0.18197452  0.19232948  0.04692853     0.07900
C2277       C  0.89302979  0.01829730  0.25017506    -0.11200
C2278       C  0.88175839  0.00283987  0.26050085     0.05900
C2279       C  0.89265583  0.98774084  0.27182931    -0.10000
C2280       C  0.91445379  0.98809092  0.27276775    -0.11600
C2281       C  0.92580383  0.00330462  0.26201648    -0.01400
C2282       C  0.91477430  0.01843645  0.25077398    -0.10500
C2283       C  0.85872025  0.00228324  0.25893761     0.06000
H2284       H  0.88427062  0.97571607  0.28000121     0.07900
H2285       H  0.92241277  0.97622373  0.28158399     0.11300
H2286       H  0.92294441  0.03044699  0.24237623     0.11600
H2287       H  0.88498645  0.03003438  0.24124697     0.07900
C2288       C  0.84680985  0.01986278  0.26391887    -0.11200
C2289       C  0.82512978  0.01958232  0.26171131    -0.10500
C2290       C  0.81489851  0.00182524  0.25407978    -0.01400
C2291       C  0.82691297  0.98424481  0.24909210    -0.11600
C2292       C  0.84854961  0.98441696  0.25168237    -0.10000
H2293       H  0.85431638  0.03382371  0.26955275     0.07900
H2294       H  0.81643149  0.03342767  0.26562362     0.11600
H2295       H  0.81960265  0.97030987  0.24316216     0.11300
H2296       H  0.85742482  0.97073843  0.24755303     0.07900
C2297       C  0.99909247  0.95018512  0.31371081    -0.11200
C2298       C  0.02060517  0.95410383  0.31429789     0.05900
C2299       C  0.02845358  0.97135033  0.30375138    -0.10000
C2300       C  0.01535402  0.98395155  0.29211513    -0.11600
C2301       C  0.99395571  0.97962623  0.29052525    -0.01400
C2302       C  0.98583098  0.96285278  0.30183921    -0.10500
C2303       C  0.03541475  0.93972670  0.32444864     0.06000
H2304       H  0.04492631  0.97485417  0.30418595     0.07900
H2305       H  0.02220556  0.99689196  0.28393504     0.11300
H2306       H  0.96944523  0.95910796  0.30093189     0.11600
H2307       H  0.99272621  0.93689047  0.32170804     0.07900
C2308       C  0.03342484  0.93412431  0.34543507    -0.11200
C2309       C  0.04866012  0.92176303  0.35499239    -0.10500
C2310       C  0.06590531  0.91457838  0.34357083    -0.01400
C2311       C  0.06749764  0.91994085  0.32246860    -0.11600
C2312       C  0.05252316  0.93239455  0.31308669    -0.10000
H2313       H  0.02039071  0.93971515  0.35451259     0.07900
H2314       H  0.04691916  0.91777671  0.37122669     0.11600
H2315       H  0.08049579  0.91467667  0.31314368     0.11300
H2316       H  0.05434028  0.93640058  0.29685264     0.07900
C2317       C  0.99460913  0.04615207  0.19918371    -0.11200
C2318       C  0.01646227  0.04623224  0.20040545     0.05900
C2319       C  0.02606804  0.03718051  0.21772310    -0.10000
C2320       C  0.01427893  0.02764515  0.23308191    -0.11600
C2321       C  0.99246814  0.02685787  0.23164291    -0.01400
C2322       C  0.98269758  0.03649787  0.21465858    -0.10500
C2323       C  0.02954915  0.05581084  0.18402180     0.06000
H2324       H  0.04281195  0.03751454  0.21945963     0.07900
H2325       H  0.02241293  0.02067845  0.24604223     0.11300
H2326       H  0.96594037  0.03621916  0.21310882     0.11600
H2327       H  0.98677546  0.05310211  0.18603291     0.07900
C2328       C  0.04821877  0.04623483  0.17786408    -0.11200
C2329       C  0.06209531  0.05636702  0.16467999    -0.10500
C2330       C  0.05760346  0.07631495  0.15726077    -0.01400
C2331       C  0.03831150  0.08534857  0.16233887    -0.11600
C2332       C  0.02441975  0.07519184  0.17558550    -0.10000
H2333       H  0.05238287  0.03107961  0.18374256     0.07900
H2334       H  0.07670180  0.04887674  0.16096042     0.11600
H2335       H  0.03432797  0.10069826  0.15685996     0.11300
H2336       H  0.01018363  0.08297194  0.18006387     0.07900
C2337       C  0.60668990  0.97735709  0.74239668    -0.11200
C2338       C  0.61757797  0.99153088  0.75491291     0.05900
C2339       C  0.60631658  0.00610310  0.76664769    -0.10000
C2340       C  0.58453124  0.00628870  0.76609242    -0.11600
C2341       C  0.57358481  0.99215146  0.75346891    -0.01400
C2342       C  0.58496342  0.97777009  0.74153955    -0.10500
C2343       C  0.64063859  0.99119122  0.75544292     0.06000
H2344       H  0.61439101  0.01717705  0.77643793     0.07900
H2345       H  0.57627807  0.01761947  0.77541092     0.11300
H2346       H  0.57707733  0.96665212  0.73165578     0.11600
H2347       H  0.61504286  0.96611234  0.73305151     0.07900
C2348       C  0.65139320  0.97261759  0.75920025    -0.11200
C2349       C  0.67316317  0.97212415  0.75894657    -0.10500
C2350       C  0.68462597  0.99013394  0.75453223    -0.01400
C2351       C  0.67378702  0.00875006  0.75093853    -0.11600
C2352       C  0.65204425  0.00930234  0.75157044    -0.10000
H2353       H  0.64291045  0.95847081  0.76233371     0.07900
H2354       H  0.68098895  0.95753619  0.76174957     0.11600
H2355       H  0.68210546  0.02293060  0.74755401     0.11300
H2356       H  0.64409672  0.02378059  0.74851323     0.07900
C2357       C  0.47954004  0.97377707  0.69415288    -0.11200
C2358       C  0.48196791  0.95257780  0.68958334     0.05900
C2359       C  0.49841877  0.94167538  0.69905974    -0.10000
C2360       C  0.51144212  0.95156069  0.71351192    -0.11600
C2361       C  0.50795265  0.97234632  0.71893553    -0.01400
C2362       C  0.49219159  0.98344616  0.70887058    -0.10500
C2363       C  0.46637695  0.94173678  0.67630059     0.06000
H2364       H  0.50064225  0.92530185  0.69605947     0.07900
H2365       H  0.52348002  0.94272356  0.72124122     0.11300
H2366       H  0.48943496  0.99958695  0.71269260     0.11600
H2367       H  0.46747811  0.98282436  0.68673414     0.07900
C2368       C  0.44525309  0.94723681  0.67764081    -0.11200
C2369       C  0.43025049  0.93666481  0.66610473    -0.10500
C2370       C  0.43586694  0.92005533  0.65311277    -0.01400
C2371       C  0.45699039  0.91463961  0.65147499    -0.11600
C2372       C  0.47211214  0.92543148  0.66288943    -0.10000
H2373       H  0.44012762  0.95933166  0.68816427     0.07900
H2374       H  0.41410837  0.94105565  0.66798331     0.11600
H2375       H  0.46180053  0.90189959  0.64157484     0.11300
H2376       H  0.48824746  0.92093788  0.66130266     0.07900
C2377       C  0.50728342  0.26019953  0.65009712    -0.11200
C2378       C  0.49423747  0.24614097  0.63962404     0.05900
C2379       C  0.48167611  0.23280532  0.65142646    -0.10000
C2380       C  0.48209407  0.23352833  0.67317618    -0.11600
C2381       C  0.49530077  0.24742427  0.68369368    -0.01400
C2382       C  0.50791746  0.26074150  0.67186849    -0.10500
C2383       C  0.49362356  0.24537525  0.61648305     0.06000
H2384       H  0.47130525  0.22195775  0.64380095     0.07900
H2385       H  0.47218542  0.22303254  0.68174485     0.11300
H2386       H  0.51824518  0.27167386  0.67942805     0.11600
H2387       H  0.51723298  0.27057571  0.64142540     0.07900
C2388       C  0.49241765  0.26370116  0.60476826    -0.11200
C2389       C  0.49093450  0.26288756  0.58303488    -0.10500
C2390       C  0.49110697  0.24375254  0.57251662    -0.01400
C2391       C  0.49283771  0.22545966  0.58419593    -0.11600
C2392       C  0.49386432  0.22625170  0.60593024    -0.10000
H2393       H  0.49210817  0.27865566  0.61246375     0.07900
H2394       H  0.48971731  0.27723513  0.57443489     0.11600
H2395       H  0.49291915  0.21048047  0.57653795     0.11300
H2396       H  0.49496280  0.21188393  0.61451382     0.07900
C2397       C  0.49260040  0.24339819  0.09676896    -0.11200
C2398       C  0.50794396  0.25423518  0.10792784     0.05900
C2399       C  0.52431959  0.26350233  0.09683955    -0.10000
C2400       C  0.52529343  0.26193892  0.07508923    -0.11600
C2401       C  0.51008794  0.25078397  0.06398546    -0.01400
C2402       C  0.49371436  0.24160140  0.07512933    -0.10500
C2403       C  0.50694655  0.25539271  0.13105804     0.06000
H2404       H  0.53631361  0.27205648  0.10499529     0.07900
H2405       H  0.53816115  0.26912349  0.06701716     0.11300
H2406       H  0.48171061  0.23292342  0.06712189     0.11600
H2407       H  0.47992640  0.23588081  0.10484476     0.07900
C2408       C  0.48793974  0.25917509  0.14119400    -0.11200
C2409       C  0.48672471  0.25919060  0.16292947    -0.10500
C2410       C  0.50442520  0.25509242  0.17506773    -0.01400
C2411       C  0.52349431  0.25157110  0.16495610    -0.11600
C2412       C  0.52477693  0.25189840  0.14321117    -0.10000
H2413       H  0.47396101  0.26208069  0.13227474     0.07900
H2414       H  0.47178333  0.26184680  0.17021660     0.11600
H2415       H  0.53742485  0.24841840  0.17386783     0.11300
H2416       H  0.53960495  0.24877693  0.13587923     0.07900
C2417       C  0.30465845  0.99823293  0.95711264    -0.11200
C2418       C  0.31199492  0.01684650  0.96606911     0.05900
C2419       C  0.30615848  0.02153240  0.98663854    -0.10000
C2420       C  0.29218878  0.00891826  0.99730715    -0.11600
C2421       C  0.28417672  0.99093229  0.98799180    -0.01400
C2422       C  0.29104382  0.98528345  0.96807596    -0.10500
C2423       C  0.32446504  0.03200471  0.95373251     0.06000
H2424       H  0.31200573  0.03523313  0.99442510     0.07900
H2425       H  0.28734178  0.01342175  0.01280665     0.11300
H2426       H  0.28497989  0.97150821  0.96055882     0.11600
H2427       H  0.30860510  0.99409582  0.94128490     0.07900
C2428       C  0.33814665  0.02540168  0.93795745    -0.11200
C2429       C  0.34873586  0.03985987  0.92568768    -0.10500
C2430       C  0.34620760  0.06123730  0.92915279    -0.01400
C2431       C  0.33299504  0.06785260  0.94519627    -0.11600
C2432       C  0.32210798  0.05346907  0.95715183    -0.10000
H2433       H  0.34067884  0.00907299  0.93502266     0.07900
H2434       H  0.35890586  0.03430791  0.91346251     0.11600
H2435       H  0.33048323  0.08421736  0.94805134     0.11300
H2436       H  0.31133523  0.05931414  0.96867875     0.07900
C2437       C  0.30718033  0.20558232  0.91026519    -0.11200
C2438       C  0.30576355  0.20537646  0.93207438     0.05900
C2439       C  0.31718192  0.19060863  0.94320088    -0.10000
C2440       C  0.32916209  0.17585874  0.93289357    -0.11600
C2441       C  0.33007225  0.17530769  0.91104749    -0.01400
C2442       C  0.31919876  0.19057073  0.89979299    -0.10500
C2443       C  0.29155126  0.21930372  0.94373047     0.06000
H2444       H  0.31656839  0.19029398  0.96002627     0.07900
H2445       H  0.33748509  0.16462130  0.94219653     0.11300
H2446       H  0.31973285  0.19071572  0.88297726     0.11600
H2447       H  0.29848511  0.21686840  0.90136787     0.07900
C2448       C  0.29299329  0.24101386  0.94250847    -0.11200
C2449       C  0.28158250  0.25363888  0.95628828    -0.10500
C2450       C  0.26855572  0.24467414  0.97138430    -0.01400
C2451       C  0.26633869  0.22297680  0.97156179    -0.11600
C2452       C  0.27767898  0.21052255  0.95798158    -0.10000
H2453       H  0.30363222  0.24812074  0.93162600     0.07900
H2454       H  0.28351311  0.27029466  0.95561114     0.11600
H2455       H  0.25620818  0.21542920  0.98262540     0.11300
H2456       H  0.27609389  0.19383643  0.95904249     0.07900
C2457       C  0.45919697  0.17101838  0.93970871    -0.11200
C2458       C  0.45577676  0.17028863  0.96130960     0.05900
C2459       C  0.43985537  0.15740665  0.96883839    -0.10000
C2460       C  0.42728411  0.14607009  0.95510261    -0.11600
C2461       C  0.43044195  0.14721336  0.93350418    -0.01400
C2462       C  0.44678016  0.15955230  0.92601944    -0.10500
C2463       C  0.46827849  0.18358107  0.97567180     0.06000
H2464       H  0.43699204  0.15618831  0.98537351     0.07900
H2465       H  0.41489721  0.13663704  0.96138359     0.11300
H2466       H  0.44952282  0.16097120  0.90947240     0.11600
H2467       H  0.47102775  0.18101958  0.93325867     0.07900
C2468       C  0.48935799  0.18752351  0.97149629    -0.11200
C2469       C  0.50055468  0.20171081  0.98351680    -0.10500
C2470       C  0.49111168  0.21202930  0.00028501    -0.01400
C2471       C  0.47041281  0.20737787  0.00526780    -0.11600
C2472       C  0.45903657  0.19339338  0.99297982    -0.10000
H2473       H  0.49715967  0.17990501  0.95866069     0.07900
H2474       H  0.51657703  0.20490315  0.97948020     0.11600
H2475       H  0.46273939  0.21532440  0.01799229     0.11300
H2476       H  0.44278627  0.19094628  0.99652934     0.07900
C2477       C  0.28735672  0.09011321  0.80876595    -0.11200
C2478       C  0.29106606  0.07019224  0.80054946     0.05900
C2479       C  0.30991449  0.06029855  0.80527797    -0.10000
C2480       C  0.32459187  0.06982217  0.81804344    -0.11600
C2481       C  0.32101619  0.08964642  0.82644252    -0.01400
C2482       C  0.30232514  0.09987546  0.82145422    -0.10500
C2483       C  0.27552608  0.05903528  0.78748953     0.06000
H2484       H  0.31314311  0.04485785  0.79945875     0.07900
H2485       H  0.33880883  0.06148379  0.82144977     0.11300
H2486       H  0.29909234  0.11512921  0.82773140     0.11600
H2487       H  0.27295379  0.09810628  0.80532553     0.07900
C2488       C  0.25464656  0.05708814  0.79374161    -0.11200
C2489       C  0.24122103  0.04329073  0.78335046    -0.10500
C2490       C  0.24854045  0.03120728  0.76664749    -0.01400
C2491       C  0.26897816  0.03430626  0.75961378    -0.11600
C2492       C  0.28223792  0.04808071  0.76982743    -0.10000
H2493       H  0.24908295  0.06527155  0.80736254     0.07900
H2494       H  0.22555274  0.04118768  0.78912744     0.11600
H2495       H  0.27499422  0.02549213  0.74658179     0.11300
H2496       H  0.29811696  0.04953424  0.76441120     0.07900
C2497       C  0.46922316  0.05992191  0.83806897    -0.11200
C2498       C  0.46310429  0.04297802  0.82561273     0.05900
C2499       C  0.44194081  0.03726853  0.82566087    -0.10000
C2500       C  0.42732626  0.04854889  0.83716435    -0.11600
C2501       C  0.43335222  0.06610502  0.84865247    -0.01400
C2502       C  0.45452602  0.07143531  0.84925949    -0.10500
C2503       C  0.47841165  0.03198055  0.81188619     0.06000
H2504       H  0.43635156  0.02460167  0.81611840     0.07900
H2505       H  0.41113633  0.04403947  0.83628414     0.11300
H2506       H  0.45973361  0.08476498  0.85812597     0.11600
H2507       H  0.48535817  0.06452456  0.83904700     0.07900
C2508       C  0.49561161  0.04255345  0.80334951    -0.11200
C2509       C  0.50916095  0.03260111  0.78947363    -0.10500
C2510       C  0.50548851  0.01206691  0.78337512    -0.01400
C2511       C  0.48862220  0.00135493  0.79199262    -0.11600
C2512       C  0.47546573  0.01104022  0.80632658    -0.10000
H2513       H  0.49829271  0.05876485  0.80675426     0.07900
H2514       H  0.52194050  0.04122006  0.78278716     0.11600
H2515       H  0.48559953  0.98541181  0.78757604     0.11300
H2516       H  0.46289415  0.00206777  0.81287606     0.07900
C2517       C  0.45329458  0.21885043  0.78662351    -0.11200
C2518       C  0.43978581  0.20398503  0.77818838     0.05900
C2519       C  0.43875743  0.20160442  0.75648426    -0.10000
C2520       C  0.45190895  0.21322853  0.74354276    -0.11600
C2521       C  0.46618405  0.22740658  0.75218783    -0.01400
C2522       C  0.46627929  0.23038458  0.77384461    -0.10500
C2523       C  0.42838742  0.19010356  0.79250726     0.06000
H2524       H  0.42846914  0.19016970  0.74963861     0.07900
H2525       H  0.45140470  0.21061665  0.72692228     0.11300
H2526       H  0.47678612  0.24135332  0.78110675     0.11600
H2527       H  0.45415860  0.22120628  0.80327967     0.07900
C2528       C  0.43936464  0.18074208  0.80878686    -0.11200
C2529       C  0.42908679  0.16892245  0.82356789    -0.10500
C2530       C  0.40743884  0.16605157  0.82255925    -0.01400
C2531       C  0.39636270  0.17503535  0.80598831    -0.11600
C2532       C  0.40681329  0.18689440  0.79095523    -0.10000
H2533       H  0.45604056  0.18272833  0.81018082     0.07900
H2534       H  0.43821794  0.16217659  0.83596508     0.11600
H2535       H  0.37970717  0.17293065  0.80467731     0.11300
H2536       H  0.39803652  0.19399110  0.77850524     0.07900
C2537       C  0.72292280  0.29915035  0.91375616    -0.11200
C2538       C  0.71717064  0.27808088  0.91355215     0.05900
C2539       C  0.70018295  0.27207986  0.90106024    -0.10000
C2540       C  0.68859660  0.28690603  0.89014958    -0.11600
C2541       C  0.69392502  0.30803210  0.89120692    -0.01400
C2542       C  0.71161102  0.31383446  0.90259921    -0.10500
C2543       C  0.72784709  0.26306683  0.92767924     0.06000
H2544       H  0.69550605  0.25599880  0.90003783     0.07900
H2545       H  0.67514160  0.28188813  0.88134571     0.11300
H2546       H  0.71613873  0.32995874  0.90383226     0.11600
H2547       H  0.73553985  0.30466757  0.92341381     0.07900
C2548       C  0.74866903  0.26629154  0.93369827    -0.11200
C2549       C  0.75752798  0.25474931  0.94973996    -0.10500
C2550       C  0.74613371  0.23910560  0.95955744    -0.01400
C2551       C  0.72599974  0.23457515  0.95255720    -0.11600
C2552       C  0.71682489  0.24659914  0.93693561    -0.10000
H2553       H  0.75802043  0.27819961  0.92649468     0.07900
H2554       H  0.77320654  0.25830006  0.95477693     0.11600
H2555       H  0.71692024  0.22260843  0.96005620     0.11300
H2556       H  0.70074026  0.24365376  0.93300901     0.07900
C2557       C  0.58384154  0.29887731  0.93611858    -0.11200
C2558       C  0.57279868  0.30921048  0.95187491     0.05900
C2559       C  0.57345756  0.33101688  0.95257080    -0.10000
C2560       C  0.58462066  0.34216902  0.93751091    -0.11600
C2561       C  0.59533690  0.33168220  0.92155394    -0.01400
C2562       C  0.59481492  0.30989936  0.92117003    -0.10500
C2563       C  0.56014262  0.29690673  0.96677827     0.06000
H2564       H  0.56500594  0.33942539  0.96445334     0.07900
H2565       H  0.58477726  0.35893974  0.93829583     0.11300
H2566       H  0.60298580  0.30120466  0.90928864     0.11600
H2567       H  0.58407337  0.28210377  0.93533838     0.07900
C2568       C  0.54907007  0.27963156  0.95945329    -0.11200
C2569       C  0.53805080  0.26705139  0.97303697    -0.10500
C2570       C  0.53745705  0.27137980  0.99448373    -0.01400
C2571       C  0.54818882  0.28891759  0.00193472    -0.11600
C2572       C  0.55941946  0.30160423  0.98817039    -0.10000
H2573       H  0.54884650  0.27579676  0.94305489     0.07900
H2574       H  0.52990619  0.25385186  0.96652401     0.11600
H2575       H  0.54797038  0.29277578  0.01832116     0.11300
H2576       H  0.56786942  0.31479605  0.99429565     0.07900
C2577       C  0.73272854  0.41031254  0.80657754    -0.11200
C2578       C  0.72540543  0.42713485  0.79474105     0.05900
C2579       C  0.70386550  0.43104777  0.79440535    -0.10000
C2580       C  0.69003418  0.41837486  0.80519421    -0.11600
C2581       C  0.69733567  0.40168703  0.81705423    -0.01400
C2582       C  0.71884039  0.39784010  0.81777685    -0.10500
C2583       C  0.73989050  0.44075427  0.78282109     0.06000
H2584       H  0.69760982  0.44420322  0.78607772     0.07900
H2585       H  0.67361016  0.42205290  0.80477406     0.11300
H2586       H  0.72489463  0.38512421  0.82692044     0.11600
H2587       H  0.74914421  0.40668420  0.80708614     0.07900
C2588       C  0.75981227  0.44587325  0.79044220    -0.11200
C2589       C  0.77253139  0.45996505  0.77975599    -0.10500
C2590       C  0.76542557  0.46941655  0.76143743    -0.01400
C2591       C  0.74590720  0.46374383  0.75349015    -0.11600
C2592       C  0.73343126  0.44947898  0.76388231    -0.10000
H2593       H  0.76529293  0.43960164  0.80503847     0.07900
H2594       H  0.78747866  0.46415096  0.78627959     0.11600
H2595       H  0.74014018  0.47054031  0.73922843     0.11300
H2596       H  0.71855796  0.44546737  0.75710981     0.07900
C2597       C  0.54779363  0.42798004  0.83830246    -0.11200
C2598       C  0.55180904  0.43884363  0.81980438     0.05900
C2599       C  0.57190190  0.43805096  0.81131370    -0.10000
C2600       C  0.58754534  0.42656328  0.82080648    -0.11600
C2601       C  0.58368383  0.41560594  0.83920296    -0.01400
C2602       C  0.56370572  0.41660681  0.84807706    -0.10500
C2603       C  0.53547329  0.45080131  0.80868002     0.06000
H2604       H  0.57543520  0.44596860  0.79693225     0.07900
H2605       H  0.60274409  0.42611083  0.81356666     0.11300
H2606       H  0.56026063  0.40813756  0.86215314     0.11600
H2607       H  0.53243011  0.42833921  0.84517315     0.07900
C2608       C  0.51593948  0.44209888  0.80396348    -0.11200
C2609       C  0.50244450  0.45202218  0.78991819    -0.10500
C2610       C  0.50842352  0.47066463  0.78037502    -0.01400
C2611       C  0.52724277  0.47997607  0.78637950    -0.11600
C2612       C  0.54050044  0.47025205  0.80040513    -0.10000
H2613       H  0.51167874  0.42710007  0.81012108     0.07900
H2614       H  0.48797549  0.44455917  0.78562535     0.11600
H2615       H  0.53209452  0.49456266  0.77966796     0.11300
H2616       H  0.55522099  0.47755586  0.80409776     0.07900
C2617       C  0.54685837  0.27768596  0.78199683    -0.11200
C2618       C  0.56396746  0.28594079  0.77133422     0.05900
C2619       C  0.56413213  0.28517373  0.74949449    -0.10000
C2620       C  0.54753459  0.27622689  0.73855146    -0.11600
C2621       C  0.53038884  0.26797237  0.74924196    -0.01400
C2622       C  0.53027911  0.26886355  0.77111469    -0.10500
C2623       C  0.58102380  0.29611740  0.78311168     0.06000
H2624       H  0.57717390  0.29137231  0.74090120     0.07900
H2625       H  0.54818694  0.27570459  0.72174243     0.11300
H2626       H  0.51733043  0.26277744  0.77992891     0.11600
H2627       H  0.54610568  0.27841189  0.79880410     0.07900
C2628       C  0.58856267  0.31557936  0.77697400    -0.11200
C2629       C  0.60261998  0.32643956  0.78953555    -0.10500
C2630       C  0.60944519  0.31804208  0.80849709    -0.01400
C2631       C  0.60286641  0.29800519  0.81397636    -0.11600
C2632       C  0.58877412  0.28718775  0.80144111    -0.10000
H2633       H  0.58275896  0.32288402  0.76299813     0.07900
H2634       H  0.60730781  0.34185487  0.78487877     0.11600
H2635       H  0.60792246  0.29100744  0.82839594     0.11300
H2636       H  0.58347305  0.27205301  0.80636854     0.07900
C2637       C  0.10254591  0.52568193  0.26247368    -0.11200
C2638       C  0.11397128  0.51035029  0.25195575     0.05900
C2639       C  0.10328357  0.49468788  0.24117064    -0.10000
C2640       C  0.08155263  0.49444932  0.24073641    -0.11600
C2641       C  0.07003944  0.50963655  0.25144376    -0.01400
C2642       C  0.08077351  0.52520607  0.26241354    -0.10500
C2643       C  0.13699676  0.51042788  0.25245203     0.06000
H2644       H  0.11178842  0.48274005  0.23290332     0.07900
H2645       H  0.07376142  0.48220121  0.23221152     0.11300
H2646       H  0.07234511  0.53715420  0.27074733     0.11600
H2647       H  0.11049197  0.53783375  0.27099791     0.07900
C2648       C  0.14824208  0.52810856  0.24656872    -0.11200
C2649       C  0.17003036  0.52791875  0.24669788    -0.10500
C2650       C  0.18097280  0.51014009  0.25306085    -0.01400
C2651       C  0.16958593  0.49255460  0.25915668    -0.11600
C2652       C  0.14786424  0.49265509  0.25869096    -0.10000
H2653       H  0.14014817  0.54195692  0.24159674     0.35900
H2654       H  0.17828276  0.54173781  0.24195739     0.11600
H2655       H  0.17744387  0.47858853  0.26415632     0.11300
H2656       H  0.13950132  0.47888533  0.26341436     0.07900
C2657       C  0.73706803  0.60009410  0.98270116    -0.11200
C2658       C  0.74310708  0.61208329  0.99999202     0.05900
C2659       C  0.74935103  0.60189613  0.01822377    -0.10000
C2660       C  0.75005168  0.58024710  0.01900256    -0.11600
C2661       C  0.74416345  0.56825544  0.00170063    -0.01400
C2662       C  0.73739060  0.57838866  0.98361604    -0.10500
C2663       C  0.74358182  0.63511456  0.99891410     0.06000
H2664       H  0.75427333  0.61070031  0.03171708     0.07900
H2665       H  0.75531320  0.57286225  0.03315436     0.11300
H2666       H  0.73291778  0.56954459  0.96999056     0.11600
H2667       H  0.73208646  0.60752746  0.96847592     0.07900
C2668       C  0.75229056  0.64511989  0.98163803    -0.11200
C2669       C  0.75373062  0.66675472  0.98105590    -0.10500
C2670       C  0.74630690  0.67895788  0.99765501    -0.01400
C2671       C  0.73725467  0.66892745  0.01478628    -0.11600
C2672       C  0.73601503  0.64726166  0.01544895    -0.10000
H2673       H  0.75843955  0.63617347  0.96876082     0.07900
H2674       H  0.76071930  0.67390029  0.96756074     0.11600
H2675       H  0.73130492  0.67779157  0.02780819     0.11300
H2676       H  0.72906242  0.63997563  0.02889169     0.07900
C2677       C  0.71361491  0.46249408  0.96856865    -0.11200
C2678       C  0.69998338  0.46962216  0.95317839     0.05900
C2679       C  0.69722459  0.49110988  0.95071745    -0.10000
C2680       C  0.70863658  0.50518518  0.96300010    -0.11600
C2681       C  0.72285500  0.49790375  0.97795922    -0.01400
C2682       C  0.72483015  0.47637436  0.98077181    -0.10500
C2683       C  0.68982124  0.45424630  0.93930734     0.06000
H2684       H  0.68679154  0.49696409  0.93888766     0.07900
H2685       H  0.70668678  0.52165153  0.96048649     0.11300
H2686       H  0.73532857  0.47007099  0.99230049     0.11600
H2687       H  0.71578235  0.44603168  0.97101900     0.07900
C2688       C  0.70193578  0.43848888  0.93037170    -0.11200
C2689       C  0.69273913  0.42269956  0.91878902    -0.10500
C2690       C  0.67108281  0.42215606  0.91576158    -0.01400
C2691       C  0.65889351  0.43817841  0.92434783    -0.11600
C2692       C  0.66822017  0.45417620  0.93596297    -0.10000
H2693       H  0.71864884  0.43830296  0.93251610     0.07900
H2694       H  0.70271526  0.41082223  0.91227191     0.11600
H2695       H  0.64220393  0.43833464  0.92211916     0.11300
H2696       H  0.65855561  0.46613684  0.94278538     0.07900
C2697       C  0.96032015  0.32780551  0.06099346    -0.11200
C2698       C  0.95660647  0.33029759  0.03956013     0.05900
C2699       C  0.94074331  0.34403174  0.03337366    -0.10000
C2700       C  0.92823291  0.35400012  0.04814753    -0.11600
C2701       C  0.93155171  0.35083484  0.06948618    -0.01400
C2702       C  0.94809443  0.33807237  0.07571644    -0.10500
C2703       C  0.96812516  0.31737842  0.02400218     0.06000
H2704       H  0.93769015  0.34686044  0.01708678     0.07900
H2705       H  0.91574119  0.36391885  0.04284710     0.11300
H2706       H  0.95103517  0.33522024  0.09203986     0.11600
H2707       H  0.97202977  0.31715483  0.06656959     0.07900
C2708       C  0.98840638  0.31024431  0.02818175    -0.11200
C2709       C  0.99787626  0.29556702  0.01525234    -0.10500
C2710       C  0.98762923  0.28821422  0.99744361    -0.01400
C2711       C  0.96810302  0.29636144  0.99231415    -0.11600
C2712       C  0.95831898  0.31057840  0.00557645    -0.10000
H2713       H  0.99684942  0.31557307  0.04174053     0.07900
H2714       H  0.01312118  0.28970895  0.01932575     0.11600
H2715       H  0.95988385  0.29082093  0.97867927     0.11300
H2716       H  0.94265063  0.31536014  0.00182947     0.07900
C2717       C  0.93680631  0.30389544  0.19355757    -0.11200
C2718       C  0.92531524  0.29667229  0.21055254     0.05900
C2719       C  0.90427606  0.30229683  0.21235327    -0.10000
C2720       C  0.89492782  0.31492045  0.19719819    -0.11600
C2721       C  0.90665318  0.32241929  0.18033666    -0.01400
C2722       C  0.92766881  0.31665789  0.17873993    -0.10500
C2723       C  0.93600051  0.28368777  0.22621580     0.06000
H2724       H  0.89513596  0.29686975  0.22536473     0.07900
H2725       H  0.87872020  0.31915235  0.19888694     0.11300
H2726       H  0.93718312  0.32207587  0.16599345     0.11600
H2727       H  0.95310403  0.29993934  0.19194375     0.07900
C2728       C  0.94753335  0.26646439  0.21951960    -0.11200
C2729       C  0.96165940  0.25690406  0.23283228    -0.10500
C2730       C  0.96454518  0.26428490  0.25319643    -0.01400
C2731       C  0.95178015  0.28044079  0.26051541    -0.11600
C2732       C  0.93759680  0.29012954  0.24705694    -0.10000
H2733       H  0.94643781  0.26113910  0.20356960     0.07900
H2734       H  0.97104433  0.24426682  0.22686392     0.11600
H2735       H  0.95372938  0.28644593  0.27613199     0.11300
H2736       H  0.92895631  0.30350624  0.25249283     0.07900
C2737       C  0.94104506  0.45491660  0.18259754    -0.11200
C2738       C  0.96257444  0.45185046  0.17995341     0.05900
C2739       C  0.96925923  0.43605439  0.16637833    -0.10000
C2740       C  0.95482185  0.42343379  0.15610559    -0.11600
C2741       C  0.93336394  0.42649712  0.15891042    -0.01400
C2742       C  0.92664466  0.44254303  0.17206340    -0.10500
C2743       C  0.97780529  0.46466300  0.19188638     0.06000
H2744       H  0.98564273  0.43341296  0.16364638     0.07900
H2745       H  0.96047775  0.41123457  0.14596530     0.11300
H2746       H  0.91022910  0.44514112  0.17473632     0.11600
H2747       H  0.93520056  0.46652493  0.19328797     0.07900
C2748       C  0.97307838  0.48532530  0.19711659    -0.11200
C2749       C  0.98600817  0.49660462  0.21038107    -0.10500
C2750       C  0.00428584  0.48775928  0.21827145    -0.01400
C2751       C  0.00987138  0.46766843  0.21207651    -0.11600
C2752       C  0.99664071  0.45612636  0.19915967    -0.10000
H2753       H  0.95913188  0.49271202  0.19133148     0.07900
H2754       H  0.98149333  0.51217818  0.21485979     0.11600
H2755       H  0.02379808  0.46048400  0.21819818     0.11300
H2756       H  0.00074991  0.44021447  0.19570178     0.07900
C2757       C  0.80139604  0.25354226  0.05713957    -0.11200
C2758       C  0.79642973  0.27474932  0.05623647     0.05900
C2759       C  0.78140148  0.28144025  0.04195976    -0.10000
C2760       C  0.77237875  0.26752430  0.02803186    -0.11600
C2761       C  0.77811095  0.24649062  0.02800969    -0.01400
C2762       C  0.79228433  0.23948403  0.04310698    -0.10500
C2763       C  0.80823251  0.29037083  0.06838460     0.06000
H2764       H  0.77709098  0.29765694  0.04116188     0.07900
H2765       H  0.76121916  0.27340313  0.01690473     0.11300
H2766       H  0.79696722  0.22336434  0.04349983     0.11600
H2767       H  0.81303127  0.24805020  0.06797661     0.07900
C2768       C  0.81107947  0.28862398  0.08996547    -0.11200
C2769       C  0.82216900  0.30389517  0.10095917    -0.10500
C2770       C  0.83079631  0.32096661  0.09045422    -0.01400
C2771       C  0.82793649  0.32247386  0.06884727    -0.11600
C2772       C  0.81678576  0.30743122  0.05800607    -0.10000
H2773       H  0.80455183  0.27560778  0.09829616     0.07900
H2774       H  0.82413925  0.30225240  0.11758605     0.11600
H2775       H  0.83439866  0.33529824  0.06017643     0.11300
H2776       H  0.81504253  0.30900561  0.04133696     0.07900
C2777       C  0.83501796  0.47171589  0.07644724    -0.11200
C2778       C  0.82434015  0.46629254  0.05809017     0.05900
C2779       C  0.82561657  0.44563988  0.05104145    -0.10000
C2780       C  0.83704645  0.43086711  0.06193707    -0.11600
C2781       C  0.84726669  0.43609860  0.08050490    -0.01400
C2782       C  0.84626738  0.45674971  0.08759117    -0.10500
C2783       C  0.81114631  0.48152907  0.04658477     0.06000
H2784       H  0.81718726  0.44056054  0.03738038     0.07900
H2785       H  0.83723373  0.41509199  0.05613210     0.11300
H2786       H  0.85400731  0.46129739  0.10185169     0.11600
H2787       H  0.83462919  0.48747076  0.08226660     0.07900
C2788       C  0.79958423  0.49694509  0.05707967    -0.11200
C2789       C  0.78507531  0.50917473  0.04631483    -0.10500
C2790       C  0.78166821  0.50589125  0.02501664    -0.01400
C2791       C  0.79390416  0.49136033  0.01438638    -0.11600
C2792       C  0.80869511  0.47961660  0.02492451    -0.10000
H2793       H  0.80093390  0.49887344  0.07374352     0.07900
H2794       H  0.77571259  0.52029576  0.05480343     0.11600
H2795       H  0.79171428  0.48879671  0.99787153     0.11300
H2796       H  0.81780674  0.46857697  0.01609206     0.07900
C2797       C  0.75268612  0.42792796  0.21038350    -0.11200
C2798       C  0.77325680  0.42522803  0.21731023     0.05900
C2799       C  0.77919031  0.43379065  0.23648683    -0.10000
C2800       C  0.76556222  0.44639905  0.24757851    -0.11600
C2801       C  0.74559427  0.45065622  0.23984071    -0.01400
C2802       C  0.73888911  0.44056416  0.22162974    -0.10500
C2803       C  0.78936321  0.41596563  0.20368183     0.06000
H2804       H  0.79480466  0.43156309  0.24240254     0.07900
H2805       H  0.77103230  0.45361915  0.26179228     0.11300
H2806       H  0.72354638  0.44354140  0.21536917     0.11600
H2807       H  0.74774051  0.42144939  0.19563882     0.07900
C2808       C  0.78612311  0.39721661  0.19297203    -0.11200
C2809       C  0.80179321  0.38899271  0.18018738    -0.10500
C2810       C  0.82070715  0.39965009  0.17764391    -0.01400
C2811       C  0.82371541  0.41846748  0.18821992    -0.11600
C2812       C  0.80830098  0.42646219  0.20111320    -0.10000
H2813       H  0.77161099  0.38888814  0.19465418     0.07900
H2814       H  0.79900436  0.37454136  0.17203808     0.11600
H2815       H  0.83807582  0.42706750  0.18656373     0.11300
H2816       H  0.81108182  0.44113505  0.20886642     0.07900
C2817       C  0.92146306  0.69935068  0.30640413    -0.11200
C2818       C  0.91944316  0.69388751  0.28526033     0.05900
C2819       C  0.90539709  0.67798673  0.27994585    -0.10000
C2820       C  0.89445829  0.66727116  0.29537232    -0.11600
C2821       C  0.89704735  0.67239667  0.31648262    -0.01400
C2822       C  0.91028770  0.68889634  0.32173842    -0.10500
C2823       C  0.93297013  0.70387861  0.26923688     0.06000
H2824       H  0.90302347  0.67357430  0.26386986     0.07900
H2825       H  0.88424556  0.65472794  0.29078713     0.11300
H2826       H  0.91277177  0.69317136  0.33785144     0.11600
H2827       H  0.93237599  0.71112584  0.31134929     0.07900
C2828       C  0.94002598  0.72434638  0.27203592    -0.11200
C2829       C  0.95533389  0.73257979  0.25911811    -0.10500
C2830       C  0.96354978  0.72085451  0.24264396    -0.01400
C2831       C  0.95540869  0.70109841  0.23862851    -0.11600
C2832       C  0.94040274  0.69258714  0.25192116    -0.10000
H2833       H  0.93422169  0.73388202  0.28463562     0.07900
H2834       H  0.96124004  0.74797651  0.26238288     0.11600
H2835       H  0.96165159  0.69172071  0.22610125     0.11300
H2836       H  0.93556936  0.67674634  0.24924790     0.07900
C2837       C  0.94975158  0.68538786  0.49976828    -0.11200
C2838       C  0.95575433  0.68241887  0.47898411     0.05900
C2839       C  0.97349696  0.69246702  0.47148111    -0.10000
C2840       C  0.98420757  0.70649409  0.48399567    -0.11600
C2841       C  0.97739212  0.71078712  0.50430105    -0.01400
C2842       C  0.96060192  0.69947888  0.51244176    -0.10500
C2843       C  0.94180714  0.67221397  0.46392918     0.06000
H2844       H  0.97831872  0.69036139  0.45547949     0.07900
H2845       H  0.99730462  0.71473101  0.47741935     0.11300
H2846       H  0.95505495  0.70252499  0.52804261     0.11600
H2847       H  0.93592508  0.67789533  0.50571326     0.07900
C2848       C  0.93840372  0.65073727  0.46394964    -0.11200
C2849       C  0.92613783  0.64157331  0.44835010    -0.10500
C2850       C  0.91702486  0.65385756  0.43271559    -0.01400
C2851       C  0.92022629  0.67540521  0.43320523    -0.11600
C2852       C  0.93252068  0.68442077  0.44855736    -0.10000
H2853       H  0.94556194  0.64109727  0.47569803     0.07900
H2854       H  0.92388846  0.62494224  0.44845412     0.11600
H2855       H  0.91341289  0.68539462  0.42155142     0.11300
H2856       H  0.93495833  0.70103984  0.44836707     0.07900
C2857       C  0.93742872  0.55752956  0.31469064    -0.11200
C2858       C  0.95740567  0.55578739  0.32333302     0.05900
C2859       C  0.96129409  0.56463106  0.34295985    -0.10000
C2860       C  0.94534279  0.57493296  0.35374684    -0.11600
C2861       C  0.92545143  0.57682338  0.34482770    -0.01400
C2862       C  0.92170693  0.56793431  0.32525663    -0.10500
C2863       C  0.97375858  0.54475253  0.31140563     0.06000
H2864       H  0.97657065  0.56346040  0.34995577     0.07900
H2865       H  0.94867207  0.58184640  0.36874265     0.11300
H2866       H  0.90656148  0.56915143  0.31797504     0.11600
H2867       H  0.93403554  0.55115467  0.29946787     0.07900
C2868       C  0.96864895  0.52625107  0.30111449    -0.11200
C2869       C  0.98238327  0.51732835  0.28702695    -0.10500
C2870       C  0.00174591  0.52650989  0.28298876    -0.01400
C2871       C  0.00761911  0.54423204  0.29432096    -0.11600
C2872       C  0.99364292  0.55336725  0.30843272    -0.10000
H2873       H  0.95363833  0.51901192  0.30345958     0.07900
H2874       H  0.97759471  0.50339938  0.27888914     0.11600
H2875       H  0.02250414  0.55155168  0.29152340     0.11300
H2876       H  0.99793359  0.56766577  0.31617471     0.07900
C2877       C  0.81179146  0.55793077  0.44950034    -0.11200
C2878       C  0.81909149  0.53738117  0.44956654     0.05900
C2879       C  0.83765706  0.53277621  0.43891595    -0.10000
C2880       C  0.84836839  0.54835517  0.42808955    -0.11600
C2881       C  0.84049035  0.56867960  0.42750225    -0.01400
C2882       C  0.82231799  0.57331589  0.43864280    -0.10500
C2883       C  0.80659995  0.52104529  0.46009792     0.06000
H2884       H  0.84375228  0.51713528  0.43879038     0.07900
H2885       H  0.86227612  0.54433778  0.41949035     0.11300
H2886       H  0.81587173  0.58883099  0.43850601     0.11600
H2887       H  0.79739820  0.56204799  0.45720166     0.07900
C2888       C  0.79619702  0.52580622  0.47869011    -0.11200
C2889       C  0.78163581  0.51218277  0.48694556    -0.10500
C2890       C  0.77726856  0.49321489  0.47709968    -0.01400
C2891       C  0.78872917  0.48757145  0.45938872    -0.11600
C2892       C  0.80324420  0.50146160  0.45087172    -0.10000
H2893       H  0.79879927  0.54045069  0.48654186     0.07900
H2894       H  0.77328174  0.51679675  0.50083471     0.11600
H2895       H  0.78560291  0.47305271  0.45149554     0.11300
H2896       H  0.81096292  0.49734857  0.43648529     0.07900
C2897       C  0.76301182  0.72389094  0.44500445    -0.11200
C2898       C  0.78240645  0.72827817  0.43593073     0.05900
C2899       C  0.79203509  0.74733851  0.44068215    -0.10000
C2900       C  0.78301838  0.76108406  0.45498486    -0.11600
C2901       C  0.76444109  0.75584925  0.46509633    -0.01400
C2902       C  0.75429869  0.73736533  0.45961541    -0.10500
C2903       C  0.79332537  0.71224662  0.42321868     0.06000
H2904       H  0.80704324  0.75122186  0.43419006     0.07900
H2905       H  0.79112610  0.77526530  0.45896171     0.11300
H2906       H  0.73972621  0.73316803  0.46689865     0.11600
H2907       H  0.75476788  0.70973920  0.44125197     0.07900
C2908       C  0.79138765  0.69114667  0.42836166    -0.11200
C2909       C  0.80291595  0.67607246  0.41790813    -0.10500
C2910       C  0.81703692  0.68168774  0.40232277    -0.01400
C2911       C  0.81869528  0.70263624  0.39669193    -0.11600
C2912       C  0.80680067  0.71775654  0.40690279    -0.10000
H2913       H  0.78162486  0.68624586  0.44111716     0.07900
H2914       H  0.80151158  0.66007526  0.42276280     0.11600
H2915       H  0.82938735  0.70734205  0.38460168     0.11300
H2916       H  0.80843093  0.73377482  0.40224758     0.07900
C2917       C  0.77966352  0.52976393  0.28756606    -0.11200
C2918       C  0.77043533  0.54754768  0.29611193     0.05900
C2919       C  0.74862076  0.54940369  0.29553983    -0.10000
C2920       C  0.73635373  0.53379311  0.28647003    -0.11600
C2921       C  0.74569317  0.51598936  0.27793257    -0.01400
C2922       C  0.76751332  0.51424987  0.27863329    -0.10500
C2923       C  0.78373702  0.56347232  0.30629776     0.06000
H2924       H  0.74107050  0.56299298  0.30196302     0.07900
H2925       H  0.71963087  0.53567125  0.28613194     0.11300
H2926       H  0.77537902  0.50079131  0.27231114     0.11600
H2927       H  0.79635184  0.52760185  0.28814996     0.07900
C2928       C  0.77797496  0.57216734  0.32548353    -0.11200
C2929       C  0.79167820  0.58512248  0.33631152    -0.10500
C2930       C  0.81146150  0.58969289  0.32819209    -0.01400
C2931       C  0.81681998  0.58178878  0.30853473    -0.11600
C2932       C  0.80310631  0.56885300  0.29771038    -0.10000
H2933       H  0.76326487  0.56818914  0.33259566     0.07900
H2934       H  0.78703629  0.59093356  0.35142284     0.11600
H2935       H  0.83186616  0.58507580  0.30176711     0.11300
H2936       H  0.80785578  0.56267129  0.28277812     0.07900
C2937       C  0.51256822  0.53756276  0.68929388    -0.11200
C2938       C  0.53436991  0.53629536  0.69024463     0.05900
C2939       C  0.54355358  0.52215210  0.70397048    -0.10000
C2940       C  0.53137133  0.51013274  0.71711112    -0.11600
C2941       C  0.50958331  0.51190839  0.71694961    -0.01400
C2942       C  0.50024593  0.52546545  0.70259026    -0.10500
C2943       C  0.54790846  0.55049422  0.67826666     0.06000
H2944       H  0.56031732  0.52064714  0.70478608     0.07900
H2945       H  0.53915190  0.49966826  0.72768553     0.11300
H2946       H  0.48350011  0.52715957  0.70204094     0.11600
H2947       H  0.50514318  0.54842729  0.67887088     0.07900
C2948       C  0.54563509  0.55319793  0.65670566    -0.11200
C2949       C  0.55974503  0.56562337  0.64565236    -0.10500
C2950       C  0.57617133  0.57566186  0.65609132    -0.01400
C2951       C  0.57792375  0.57325205  0.67774748    -0.11600
C2952       C  0.56403148  0.56086753  0.68863502    -0.10000
H2953       H  0.53330084  0.54530327  0.64837948     0.07900
H2954       H  0.55787248  0.56728769  0.62902320     0.11600
H2955       H  0.59019367  0.58085860  0.68643238     0.11300
H2956       H  0.56595144  0.55930710  0.70528256     0.07900
C2957       C  0.70647977  0.69761688  0.57429440    -0.11200
C2958       C  0.69975683  0.71838638  0.57512954     0.05900
C2959       C  0.68179643  0.72304744  0.58676836    -0.10000
C2960       C  0.67036189  0.70722613  0.59634507    -0.11600
C2961       C  0.67675550  0.68641366  0.59470547    -0.01400
C2962       C  0.69525374  0.68192972  0.58405317    -0.10500
C2963       C  0.71055605  0.73447162  0.56239139     0.06000
H2964       H  0.67631998  0.73885578  0.58817179     0.07900
H2965       H  0.65628473  0.71125007  0.60465568     0.11300
H2966       H  0.70065643  0.66610401  0.58245229     0.11600
H2967       H  0.71990999  0.69315575  0.56521362     0.07900
C2968       C  0.73191480  0.73257568  0.55794224    -0.11200
C2969       C  0.74121341  0.74493156  0.54280568    -0.10500
C2970       C  0.72964112  0.76005731  0.53236907    -0.01400
C2971       C  0.70883377  0.76333619  0.53792382    -0.11600
C2972       C  0.69929011  0.75052383  0.55267127    -0.10000
H2973       H  0.74136458  0.72100596  0.56559845     0.07900
H2974       H  0.75739422  0.74237693  0.53889258     0.11600
H2975       H  0.69965350  0.77493535  0.52995595     0.11300
H2976       H  0.68282484  0.75246958  0.55548694     0.07900
C2977       C  0.68370757  0.55796318  0.54638721    -0.11200
C2978       C  0.67318722  0.53915207  0.54301804     0.05900
C2979       C  0.65374198  0.53618778  0.55252014    -0.10000
C2980       C  0.64501262  0.55182563  0.56503990    -0.11600
C2981       C  0.65575826  0.57053896  0.56854844    -0.01400
C2982       C  0.67516094  0.57338497  0.55898864    -0.10500
C2983       C  0.68310018  0.52285367  0.52992052     0.06000
H2984       H  0.64528273  0.52185964  0.55017768     0.07900
H2985       H  0.63008574  0.54911174  0.57230257     0.11300
H2986       H  0.68388772  0.58755432  0.56134780     0.11600
H2987       H  0.69887281  0.56061402  0.53959788     0.07900
C2988       C  0.69348937  0.52861433  0.51167165    -0.11200
C2989       C  0.70623940  0.51456029  0.50126669    -0.10500
C2990       C  0.70893158  0.49429088  0.50874902    -0.01400
C2991       C  0.69709428  0.48783691  0.52590038    -0.11600
C2992       C  0.68426083  0.50206162  0.53645241    -0.10000
H2993       H  0.69247377  0.54434556  0.50592975     0.07900
H2994       H  0.71480136  0.51990728  0.48782303     0.11600
H2995       H  0.69882047  0.47229546  0.53196396     0.11300
H2996       H  0.67634987  0.49716844  0.55044549     0.07900
C2997       C  0.69957011  0.57226896  0.69557706    -0.11200
C2998       C  0.72082384  0.57429375  0.69067809     0.05900
C2999       C  0.72639692  0.58787315  0.67449540    -0.10000
C3000       C  0.71111882  0.59858745  0.66323585    -0.11600
C3001       C  0.68995227  0.59630788  0.66815291    -0.01400
C3002       C  0.68442749  0.58328969  0.68467210    -0.10500
C3003       C  0.73674770  0.56162606  0.70196445     0.06000
H3004       H  0.74253665  0.59021389  0.67043288     0.07900
H3005       H  0.71586470  0.60860763  0.65063143     0.11300
H3006       H  0.66825381  0.58096545  0.68869661     0.11600
H3007       H  0.69439038  0.56161212  0.70743374     0.07900
C3008       C  0.73322828  0.55546240  0.72264363    -0.11200
C3009       C  0.74656540  0.54152287  0.73245736    -0.10500
C3010       C  0.76422136  0.53391730  0.72222174    -0.01400
C3011       C  0.76868297  0.54094564  0.70210973    -0.11600
C3012       C  0.75494983  0.55449427  0.69197100    -0.10000
H3013       H  0.71994197  0.56110670  0.73126160     0.07900
H3014       H  0.74295718  0.53648388  0.74809369     0.11600
H3015       H  0.78216615  0.53513409  0.69387241     0.11300
H3016       H  0.75820590  0.55862422  0.67601816     0.07900
C3017       C  0.55714836  0.68417464  0.55497222    -0.11200
C3018       C  0.55096615  0.67349012  0.53696178     0.05900
C3019       C  0.55736792  0.65280408  0.53424911    -0.10000
C3020       C  0.56962716  0.64301610  0.54946558    -0.11600
C3021       C  0.57599219  0.65393814  0.56737043    -0.01400
C3022       C  0.56950804  0.67459440  0.56989355    -0.10500
C3023       C  0.53802037  0.68451235  0.52137253     0.06000
H3024       H  0.55277220  0.64423090  0.52049511     0.07900
H3025       H  0.57446977  0.62711331  0.54703797     0.11300
H3026       H  0.57406711  0.68349174  0.58345661     0.11600
H3027       H  0.55267924  0.70020027  0.55736822     0.07900
C3028       C  0.52105495  0.69637140  0.52820711    -0.11200
C3029       C  0.51113031  0.71011840  0.51482677    -0.10500
C3030       C  0.51784263  0.71239494  0.49417119    -0.01400
C3031       C  0.53374695  0.69932898  0.48675893    -0.11600
C3032       C  0.54380005  0.68547635  0.50030376    -0.10000
H3033       H  0.51602495  0.69564813  0.54425388     0.07900
H3034       H  0.49860201  0.71955150  0.52094886     0.11600
H3035       H  0.53915302  0.70061539  0.47088288     0.11300
H3036       H  0.55685247  0.67647437  0.49465205     0.07900
C3037       C  0.59005820  0.68434108  0.71443041    -0.11200
C3038       C  0.57374570  0.69729260  0.70780796     0.05900
C3039       C  0.56967014  0.69878061  0.68636066    -0.10000
C3040       C  0.58156055  0.68775826  0.67197248    -0.11600
C3041       C  0.59756507  0.67456491  0.67860811    -0.01400
C3042       C  0.60172665  0.67295277  0.69998881    -0.10500
C3043       C  0.56055672  0.70882929  0.72299034     0.06000
H3044       H  0.55689333  0.70804168  0.68060347     0.07900
H3045       H  0.57770982  0.68903199  0.65563009     0.11300
H3046       H  0.61396629  0.66286243  0.70554364     0.11600
H3047       H  0.59385403  0.68298766  0.73076265     0.07900
C3048       C  0.55554330  0.70033195  0.74251758    -0.11200
C3049       C  0.54159751  0.71048785  0.75583155    -0.10500
C3050       C  0.53212967  0.72904766  0.74965105    -0.01400
C3051       C  0.53767684  0.73791546  0.73058461    -0.11600
C3052       C  0.55192396  0.72809963  0.71755866    -0.10000
H3053       H  0.56168071  0.68544404  0.74718634     0.07900
H3054       H  0.53740650  0.70332024  0.77043726     0.11600
H3055       H  0.53075504  0.75238727  0.72561743     0.11300
H3056       H  0.55589045  0.73552237  0.70303534     0.07900
loop_ 
_geom_bond_atom_site_label_1 
_geom_bond_atom_site_label_2 
_geom_bond_distance 
_geom_bond_site_symmetry_2 
_ccdc_geom_bond_type 
O1           C17   1.275       .  A
O1           Zn7   2.016       .  S
C2           O18   1.276       .  A
C2           O15   1.277       .  A
C2         C2961   1.486       .  S
O3           C16   1.278       .  A
O3          Cd10   2.102       .  S
O4           C22   1.278       .  A
O4          Cd13   2.072       .  S
O5           C19   1.275       .  A
O5           Cd9   2.069       .  S
O6           C17   1.274       .  A
O6           Cd9   2.069       .  S
Zn7          O18   2.028       .  S
Zn7          O20   2.005       .  S
Zn7          O12   1.933       .  S
O8           C19   1.276       .  A
O8          Cd13   2.087       .  S
Cd9          O11   2.045       .  S
Cd9          O12   1.988       .  S
Cd10         O14   2.103       .  S
Cd10         O23   2.093       .  S
Cd10         O12   2.022       .  S
O11          C21   1.273       .  A
O12         Cd13   1.992       .  S
Cd13         O15   2.076       .  S
O14          C21   1.279       .  A
C16          O20   1.274       .  A
C16        C3021   1.486       .  S
C17        C3041   1.479       .  S
C19        C3001   1.484       .  S
C21        C2950   1.486       .  S
C22          O23   1.279       .  A
C22        C2981   1.486       .  S
O24          C40   1.276       .  A
O24         Zn30   2.028       .  S
C25          O41   1.276       .  A
C25          O38   1.276       .  A
C25        C2821   1.485       .  S
O26          C39   1.276       .  A
O26         Cd33   2.085       .  S
O27          C45   1.276       .  A
O27         Cd36   2.061       .  S
O28          C42   1.275       .  A
O28         Cd32   2.062       .  S
O29          C40   1.274       .  A
O29         Cd32   2.064       .  S
Zn30         O41   2.031       .  S
Zn30         O43   2.001       .  S
Zn30         O35   1.933       .  S
O31          C42   1.275       .  A
O31         Cd36   2.076       .  S
Cd32         O34   2.052       .  S
Cd32         O35   1.980       .  S
Cd33         O37   2.099       .  S
Cd33         O46   2.086       .  S
Cd33         O35   2.016       .  S
O34          C44   1.274       .  A
O35         Cd36   1.986       .  S
Cd36         O38   2.072       .  S
O37          C44   1.278       .  A
C39          O43   1.274       .  A
C39        C2861   1.477       .  S
C40        C2930   1.484       .  S
C42        C2910   1.477       .  S
C44        C2881   1.480       .  S
C45          O46   1.277       .  A
C45        C2850   1.484       .  S
O47          C63   1.276       .  A
O47         Zn53   2.028       .  S
C48          O64   1.276       .  A
C48          O61   1.276       .  A
C48        C2781   1.486       .  S
O49          C62   1.276       .  A
O49         Cd56   2.083       .  S
O50          C68   1.275       .  A
O50         Cd59   2.059       .  S
O51          C65   1.275       .  A
O51         Cd55   2.065       .  S
O52          C63   1.274       .  A
O52         Cd55   2.064       .  S
Zn53         O64   2.036       .  S
Zn53         O66   2.007       .  S
Zn53         O58   1.942       .  S
O54          C65   1.276       .  A
O54         Cd59   2.079       .  S
Cd55         O57   2.057       .  S
Cd55         O58   1.986       .  S
Cd56         O60   2.100       .  S
Cd56         O69   2.090       .  S
Cd56         O58   2.019       .  S
O57          C67   1.275       .  A
O58         Cd59   1.989       .  S
Cd59         O61   2.070       .  S
O60          C67   1.278       .  A
C62          O66   1.275       .  A
C62        C2810   1.479       .  S
C63        C2741   1.480       .  S
C65        C2701   1.483       .  S
C67        C2721   1.485       .  S
C68          O69   1.278       .  A
C68        C2770   1.485       .  S
C70        C2661   1.482       .  S
C70          N71   1.367   1_554  A
C70          N75   1.364       .  A
N71          C72   1.363       .  A
C72        C2681   1.488       .  S
C72          N73   1.356   1_556  A
N73          C74   1.352       .  A
C74        C2790   1.474       .  S
C74          N75   1.357       .  A
C76        C2641   1.483       .  S
C76          N77   1.366       .  A
C76          N81   1.364       .  A
N77          C78   1.361       .  A
C78        C2870   1.478       .  S
C78          N79   1.354       .  A
N79          C80   1.351       .  A
C80        C2750   1.472       .  S
C80          N81   1.357       .  A
O82          C98   1.275       .  A
O82         Zn88   2.014       .  S
C83          O99   1.275       .  A
C83          O96   1.276       .  A
C83        C2541   1.484       .  S
O84          C97   1.278       .  A
O84         Cd91   2.099       .  S
O85         C103   1.275       .  A
O85         Cd94   2.053       .  S
O86         C100   1.276       .  A
O86         Cd90   2.077       .  S
O87          C98   1.276       .  A
O87         Cd90   2.076       .  S
Zn88         O99   2.026       .  S
Zn88        O101   1.999       .  S
Zn88         O93   1.933       .  S
O89         C100   1.275       .  A
O89         Cd94   2.076       .  S
Cd90         O92   2.055       .  S
Cd90         O93   1.986       .  S
Cd91         O95   2.104       .  S
Cd91        O104   2.102       .  S
Cd91         O93   2.025       .  S
O92         C102   1.274       .  A
O93         Cd94   1.989       .  S
Cd94         O96   2.070       .  S
O95         C102   1.278       .  A
C97         O101   1.274       .  A
C97        C2561   1.487       .  S
C98        C2630   1.483       .  S
C100       C2581   1.481       .  S
C102       C2601   1.483       .  S
C103        O104   1.280       .  A
C103       C2690   1.486       .  S
O105        C121   1.275       .  A
O105       Zn111   2.027       .  S
C106        O122   1.275       .  A
C106        O119   1.275       .  A
C106       C2501   1.485       .  S
O107        C120   1.279       .  A
O107       Cd114   2.103       .  S
O108        C126   1.275       .  A
O108       Cd117   2.058       .  S
O109        C123   1.277       .  A
O109       Cd113   2.075       .  S
O110        C121   1.275       .  A
O110       Cd113   2.079       .  S
Zn111       O122   2.026       .  S
Zn111       O124   1.986       .  S
Zn111       O116   1.933       .  S
O112        C123   1.276       .  A
O112       Cd117   2.076       .  S
Cd113       O115   2.052       .  S
Cd113       O116   1.989       .  S
Cd114       O118   2.110       .  S
Cd114       O127   2.111       .  S
Cd114       O116   2.034       .  S
O115        C125   1.275       .  A
O116       Cd117   1.991       .  S
Cd117       O119   2.074       .  S
O118        C125   1.280       .  A
C120        O124   1.273       .  A
C120       C2530   1.484       .  S
C121       C2461   1.486       .  S
C123       C2430   1.481       .  S
C125       C2441   1.489       .  S
C126        O127   1.280       .  A
C126       C2481   1.488       .  S
C128       C2401   1.489       .  S
C128        N129   1.368       .  A
C128        N133   1.365       .  A
N129        C130   1.364       .  A
C130       C2570   1.489   1_554  S
C130        N131   1.355   1_554  A
N131        C132   1.351   1_556  A
C132       C2470   1.477       .  S
C132        N133   1.357       .  A
C134       C2381   1.488       .  S
C134        N135   1.365       .  A
C134        N139   1.364       .  A
N135        C136   1.361       .  A
C136       C2521   1.486       .  S
C136        N137   1.356       .  A
N137        C138   1.354       .  A
C138       C2621   1.486       .  S
C138        N139   1.360       .  A
C140       C2341   1.487       .  S
C140        N141   1.365   1_565  A
C140        N145   1.364       .  A
N141        C142   1.361       .  A
C142       C2510   1.475       .  S
C142        N143   1.355   1_545  A
N143        C144   1.355       .  A
C144       C2361   1.471       .  S
C144        N145   1.358       .  A
C146       C2281   1.490       .  S
C146        N147   1.368   1_545  A
C146        N151   1.365       .  A
N147        C148   1.363       .  A
C148       C2301   1.487       .  S
C148        N149   1.353   1_565  A
N149        C150   1.352       .  A
C150       C2321   1.485       .  S
C150        N151   1.358       .  A
C152       C2241   1.483       .  S
C152        N153   1.364       .  A
C152        N157   1.366   1_554  A
N153        C154   1.358       .  A
C154       C2261   1.485       .  S
C154        N155   1.355       .  A
N155        C156   1.356   1_554  A
C156       C2450   1.489       .  S
C156        N157   1.362       .  A
C158       C2210   1.486       .  S
C158        N159   1.365       .  A
C158        N163   1.364   1_554  A
N159        C160   1.361       .  A
C160       C2221   1.481       .  S
C160        N161   1.356       .  A
N161        C162   1.354   1_554  A
C162       C2421   1.476       .  S
C162        N163   1.359       .  A
C164       C2141   1.482       .  S
C164        N165   1.364   1_565  A
C164        N169   1.363       .  A
N165        C166   1.360       .  A
C166       C2181   1.481       .  S
C166        N167   1.356   1_545  A
N167        C168   1.353       .  A
C168       C2161   1.472       .  S
C168        N169   1.357       .  A
C170       C2110   1.482       .  S
C170        N171   1.360       .  A
C170        N175   1.363   1_455  A
N171        C172   1.355       .  A
C172       C2130   1.470       .  S
C172        N173   1.356       .  A
N173        C174   1.358   1_455  A
C174       C2710   1.475       .  S
C174        N175   1.361       .  A
C176       C2061   1.475       .  S
C176        N177   1.364       .  A
C176        N181   1.364   1_655  A
N177        C178   1.359       .  A
C178       C2730   1.481       .  S
C178        N179   1.355       .  A
N179        C180   1.355   1_655  A
C180       C2081   1.482       .  S
C180        N181   1.360       .  A
O182        C198   1.277       .  A
O182       Zn188   2.030       .  S
C183        O199   1.276       .  A
C183        O196   1.275       .  A
C183       C2230   1.481       .  S
O184        C197   1.278       .  A
O184       Cd191   2.092       .  S
O185        C203   1.274       .  A
O185       Cd194   2.047       .  S
O186        C200   1.276       .  A
O186       Cd190   2.073       .  S
O187        C198   1.274       .  A
O187       Cd190   2.064       .  S
Zn188       O199   2.044       .  S
Zn188       O201   2.011       .  S
Zn188       O193   1.940       .  S
O189        C200   1.275       .  A
O189       Cd194   2.075       .  S
Cd190       O192   2.063       .  S
Cd190       O193   1.983       .  S
Cd191       O195   2.093       .  S
Cd191       O204   2.099       .  S
Cd191       O193   2.020       .  S
O192        C202   1.276       .  A
O193       Cd194   1.980       .  S
Cd194       O196   2.058       .  S
O195        C202   1.278       .  A
C197        O201   1.275       .  A
C197       C2190   1.483       .  S
C198       C2330   1.484       .  S
C200       C2121   1.484       .  S
C202       C2090   1.485       .  S
C203        O204   1.278       .  A
C203       C2270   1.485       .  S
O205        C221   1.277       .  A
O205       Zn211   2.034       .  S
C206        O222   1.276       .  A
C206        O219   1.275       .  A
C206       C2370   1.482       .  S
O207        C220   1.277       .  A
O207       Cd214   2.081       .  S
O208        C226   1.275       .  A
O208       Cd217   2.063       .  S
O209        C223   1.276       .  A
O209       Cd213   2.066       .  S
O210        C221   1.275       .  A
O210       Cd213   2.082       .  S
Zn211       O222   2.030       .  S
Zn211       O224   2.003       .  S
Zn211       O216   1.937       .  S
O212        C223   1.275       .  A
O212       Cd217   2.074       .  S
Cd213       O215   2.053       .  S
Cd213       O216   1.985       .  S
Cd214       O218   2.090       .  S
Cd214       O227   2.105       .  S
Cd214       O216   2.019       .  S
O215        C225   1.275       .  A
O216       Cd217   1.987       .  S
Cd217       O219   2.063       .  S
O218        C225   1.277       .  A
C220        O224   1.275       .  A
C220       C2030   1.479       .  S
C221       C2001   1.487       .  S
C223       C1990   1.481       .  S
C225       C2041   1.479       .  S
C226        O227   1.279       .  A
C226       C1961   1.490       .  S
O228        C244   1.277       .  A
O228       Zn234   2.029       .  S
C229        O245   1.276       .  A
C229        O242   1.275       .  A
C229       C1941   1.483       .  S
O230        C243   1.277       .  A
O230       Cd237   2.085       .  S
O231        C249   1.273       .  A
O231       Cd240   2.046       .  S
O232        C246   1.275       .  A
O232       Cd236   2.067       .  S
O233        C244   1.274       .  A
O233       Cd236   2.064       .  S
Zn234       O245   2.041       .  S
Zn234       O247   2.011       .  S
Zn234       O239   1.943       .  S
O235        C246   1.275       .  A
O235       Cd240   2.077       .  S
Cd236       O238   2.053       .  S
Cd236       O239   1.987       .  S
Cd237       O241   2.099       .  S
Cd237       O250   2.099       .  S
Cd237       O239   2.025       .  S
O238        C248   1.274       .  A
O239       Cd240   1.988       .  S
Cd240       O242   2.066       .  S
O241        C248   1.278       .  A
C243        O247   1.276       .  A
C243       C1910   1.482       .  S
C244       C1930   1.484       .  S
C246       C2170   1.482       .  S
C248       C2310   1.485       .  S
C249        O250   1.278       .  A
C249       C1881   1.485       .  S
C251       C1861   1.483       .  S
C251        N252   1.365   1_655  A
C251        N256   1.364       .  A
N252        C253   1.359       .  A
C253       C1901   1.481       .  S
C253        N254   1.354   1_455  A
N254        C255   1.354       .  A
C255       C2841   1.478       .  S
C255        N256   1.358       .  A
C257       C1841   1.486       .  S
C257        N258   1.366       .  A
C257        N262   1.364       .  A
N258        C259   1.362       .  A
C259       C1890   1.486   1_545  S
C259        N260   1.356   1_545  A
N260        C261   1.353   1_565  A
C261       C1981   1.472   1_545  S
C261        N262   1.356       .  A
C263       C1821   1.485       .  S
C263        N264   1.366       .  A
C263        N268   1.366       .  A
N264        C265   1.360       .  A
C265       C2050   1.481       .  S
C265        N266   1.355       .  A
N266        C267   1.353       .  A
C267       C1950   1.481       .  S
C267        N268   1.360       .  A
C269       C1801   1.489       .  S
C269        N270   1.365       .  A
C269        N274   1.366   1_455  A
N270        C271   1.360       .  A
C271       C1921   1.486       .  S
C271        N272   1.354   1_455  A
N272        C273   1.353       .  A
C273       C2830   1.476       .  S
C273        N274   1.361       .  A
C275       C1781   1.486       .  S
C275        N276   1.366   1_565  A
C275        N280   1.369       .  A
N276        C277   1.360       .  A
C277       C2490   1.485       .  S
C277        N278   1.354   1_545  A
N278        C279   1.355       .  A
C279       C1970   1.491       .  S
C279        N280   1.364       .  A
C281       C1770   1.485       .  S
C281        N282   1.365   1_556  A
C281        N286   1.363       .  A
N282        C283   1.362       .  A
C283       C2761   1.484       .  S
C283        N284   1.357   1_554  A
N284        C285   1.353       .  A
C285       C2550   1.472       .  S
C285        N286   1.356       .  A
C287       C1741   1.481       .  S
C287        N288   1.365       .  A
C287        N292   1.363       .  A
N288        C289   1.360       .  A
C289       C2021   1.478       .  S
C289        N290   1.354       .  A
N290        C291   1.351       .  A
C291       C3050   1.472       .  S
C291        N292   1.357       .  A
C293       C1721   1.489       .  S
C293        N294   1.366       .  A
C293        N298   1.367       .  A
N294        C295   1.359       .  A
C295       C2010   1.479       .  S
C295        N296   1.354       .  A
N296        C297   1.356       .  A
C297       C3030   1.486       .  S
C297        N298   1.362       .  A
C299       C1701   1.485       .  S
C299        N300   1.363       .  A
C299        N304   1.363       .  A
N300        C301   1.358       .  A
C301       C2970   1.472       .  S
C301        N302   1.355       .  A
N302        C303   1.357       .  A
C303       C2901   1.478       .  S
C303        N304   1.360       .  A
C305       C1681   1.482       .  S
C305        N306   1.366       .  A
C305        N310   1.364       .  A
N306        C307   1.361       .  A
C307       C2610   1.483       .  S
C307        N308   1.355       .  A
N308        C309   1.354       .  A
C309       C2941   1.486       .  S
C309        N310   1.358       .  A
C311       C1661   1.481       .  S
C311        N312   1.364       .  A
C311        N316   1.365       .  A
N312        C313   1.359       .  A
C313       C3010   1.476       .  S
C313        N314   1.355       .  A
N314        C315   1.356       .  A
C315       C2590   1.482       .  S
C315        N316   1.361       .  A
C317       C1641   1.490       .  S
C317        N318   1.368       .  A
C317        N322   1.368       .  A
N318        C319   1.361       .  A
C319       C2990   1.483       .  S
C319        N320   1.352       .  A
N320        C321   1.351       .  A
C321       C2890   1.480       .  S
C321        N322   1.361       .  A
C323       C1621   1.487       .  S
C323        N324   1.367       .  A
C323        N328   1.365       .  A
N324        C325   1.363       .  A
C325       C2921   1.487       .  S
C325        N326   1.353       .  A
N326        C327   1.352       .  A
C327       C2801   1.478       .  S
C327        N328   1.357       .  A
O329        C345   1.276       .  A
O329       Zn335   2.034       .  S
C330        O346   1.277       .  A
C330        O343   1.274       .  A
C330       C1570   1.480       .  S
O331        C344   1.274       .  A
O331       Cd338   2.074       .  S
O332        C350   1.275       .  A
O332       Cd341   2.063       .  S
O333        C347   1.275       .  A
O333       Cd337   2.073       .  S
O334        C345   1.273       .  A
O334       Cd337   2.053       .  S
Zn335       O346   2.026       .  S
Zn335       O348   2.013       .  S
Zn335       O340   1.938       .  S
O336        C347   1.275       .  A
O336       Cd341   2.070       .  S
Cd337       O339   2.059       .  S
Cd337       O340   1.984       .  S
Cd338       O342   2.077       .  S
Cd338       O351   2.084       .  S
Cd338       O340   2.004       .  S
O339        C349   1.275       .  A
O340       Cd341   1.985       .  S
Cd341       O343   2.060       .  S
O342        C349   1.276       .  A
C344        O348   1.275       .  A
C344       C1610   1.470       .  S
C345       C1530   1.480       .  S
C347       C1590   1.483       .  S
C349       C1550   1.471       .  S
C350        O351   1.276       .  A
C350       C1501   1.474       .  S
O352        C368   1.275       .  A
O352       Zn358   2.022       .  S
C353        O369   1.277       .  A
C353        O366   1.276       .  A
C353       C1490   1.487       .  S
O354        C367   1.277       .  A
O354       Cd361   2.091       .  S
O355        C373   1.276       .  A
O355       Cd364   2.068       .  S
O356        C370   1.274       .  A
O356       Cd360   2.068       .  S
O357        C368   1.275       .  A
O357       Cd360   2.068       .  S
Zn358       O369   2.037       .  S
Zn358       O371   2.013       .  S
Zn358       O363   1.944       .  S
O359        C370   1.277       .  A
O359       Cd364   2.085       .  S
Cd360       O362   2.064       .  S
Cd360       O363   1.991       .  S
Cd361       O365   2.099       .  S
Cd361       O374   2.090       .  S
Cd361       O363   2.018       .  S
O362        C372   1.276       .  A
O363       Cd364   1.995       .  S
Cd364       O366   2.073       .  S
O365        C372   1.279       .  A
C367        O371   1.275       .  A
C367       C1421   1.479       .  S
C368       C1461   1.482       .  S
C370       C1390   1.486       .  S
C372       C1441   1.486       .  S
C373        O374   1.278       .  A
C373       C1410   1.483       .  S
C375       C2390   1.485       .  S
C375        N376   1.366       .  A
C375        N380   1.366       .  A
N376        C377   1.361       .  A
C377       C1470   1.486       .  S
C377        N378   1.354       .  A
N378        C379   1.351       .  A
C379       C1361   1.473       .  S
C379        N380   1.360       .  A
O381        C397   1.276       .  A
O381       Zn387   2.034       .  S
C382        O398   1.277       .  A
C382        O395   1.273       .  A
C382       C1330   1.482       .  S
O383        C396   1.278       .  A
O383       Cd390   2.100       .  S
O384        C402   1.276       .  A
O384       Cd393   2.067       .  S
O385        C399   1.276       .  A
O385       Cd389   2.077       .  S
O386        C397   1.277       .  A
O386       Cd389   2.076       .  S
Zn387       O398   2.026       .  S
Zn387       O400   2.015       .  S
Zn387       O392   1.941       .  S
O388        C399   1.276       .  A
O388       Cd393   2.075       .  S
Cd389       O391   2.068       .  S
Cd389       O392   1.993       .  S
Cd390       O394   2.099       .  S
Cd390       O403   2.108       .  S
Cd390       O392   2.015       .  S
O391        C401   1.277       .  A
O392       Cd393   1.995       .  S
Cd393       O395   2.061       .  S
O394        C401   1.280       .  A
C396        O400   1.275       .  A
C396       C1290   1.478       .  S
C397       C1341   1.487       .  S
C399       C1301   1.484       .  S
C401       C1370   1.488       .  S
C402        O403   1.280       .  A
C402       C1270   1.489       .  S
C404       C1630   1.487       .  S
C404        N405   1.366       .  A
C404        N409   1.367       .  A
N405        C406   1.360       .  A
C406       C1241   1.488       .  S
C406        N407   1.354       .  A
N407        C408   1.354       .  A
C408       C1281   1.487       .  S
C408        N409   1.361       .  A
C410       C1750   1.478       .  S
C410        N411   1.363       .  A
C410        N415   1.363       .  A
N411        C412   1.358       .  A
C412       C1221   1.480       .  S
C412        N413   1.353       .  A
N413        C414   1.353       .  A
C414       C1201   1.482       .  S
C414        N415   1.359       .  A
O416        C432   1.275       .  A
O416       Zn422   2.022       .  S
C417        O433   1.276       .  A
C417        O430   1.275       .  A
C417       C1250   1.483       .  S
O418        C431   1.276       .  A
O418       Cd425   2.076       .  S
O419        C437   1.275       .  A
O419       Cd428   2.063       .  S
O420        C434   1.275       .  A
O420       Cd424   2.066       .  S
O421        C432   1.276       .  A
O421       Cd424   2.076       .  S
Zn422       O433   2.029       .  S
Zn422       O435   2.015       .  S
Zn422       O427   1.938       .  S
O423        C434   1.276       .  A
O423       Cd428   2.070       .  S
Cd424       O426   2.060       .  S
Cd424       O427   1.991       .  S
Cd425       O429   2.088       .  S
Cd425       O438   2.089       .  S
Cd425       O427   2.011       .  S
O426        C436   1.275       .  A
O427       Cd428   1.991       .  S
Cd428       O430   2.071       .  S
O429        C436   1.277       .  A
C431        O435   1.276       .  A
C431       C1121   1.482       .  S
C432       C1141   1.486       .  S
C434       C1230   1.480       .  S
C436       C1170   1.483       .  S
C437        O438   1.277       .  A
C437       C1190   1.481       .  S
C439       C1830   1.490       .  S
C439        N440   1.369       .  A
C439        N444   1.367       .  A
N440        C441   1.362       .  A
C441       C1261   1.486       .  S
C441        N442   1.353       .  A
N442        C443   1.352       .  A
C443       C1510   1.479       .  S
C443        N444   1.359       .  A
O445        C461   1.275       .  A
O445       Zn451   2.027       .  S
C446        O462   1.275       .  A
C446        O459   1.272       .  A
C446       C1210   1.478       .  S
O447        C460   1.279       .  A
O447       Cd454   2.097       .  S
O448        C466   1.273       .  A
O448       Cd457   2.044       .  S
O449        C463   1.274       .  A
O449       Cd453   2.070       .  S
O450        C461   1.275       .  A
O450       Cd453   2.066       .  S
Zn451       O462   2.019       .  S
Zn451       O464   2.004       .  S
Zn451       O456   1.935       .  S
O452        C463   1.274       .  A
O452       Cd457   2.061       .  S
Cd453       O455   2.053       .  S
Cd453       O456   1.985       .  S
Cd454       O458   2.109       .  S
Cd454       O467   2.105       .  S
Cd454       O456   2.019       .  S
O455        C465   1.275       .  A
O456       Cd457   1.985       .  S
Cd457       O459   2.056       .  S
O458        C465   1.281       .  A
C460        O464   1.275       .  A
C460       C1081   1.482       .  S
C461       C1030   1.481       .  S
C463       C1061   1.479       .  S
C465       C1050   1.486       .  S
C466        O467   1.279       .  A
C466       C1110   1.485       .  S
C468       C2670   1.489       .  S
C468        N469   1.367   1_556  A
C468        N473   1.365       .  A
N469        C470   1.362       .  A
C470       C1101   1.487       .  S
C470        N471   1.355   1_554  A
N471        C472   1.352       .  A
C472       C1001   1.476       .  S
C472        N473   1.358       .  A
O474        C490   1.274       .  A
O474       Zn480   2.013       .  S
C475        O491   1.277       .  A
C475        O488   1.274       .  A
C475        C981   1.483       .  S
O476        C489   1.278       .  A
O476       Cd483   2.096       .  S
O477        C495   1.276       .  A
O477       Cd486   2.065       .  S
O478        C492   1.275       .  A
O478       Cd482   2.069       .  S
O479        C490   1.277       .  A
O479       Cd482   2.079       .  S
Zn480       O491   2.032       .  S
Zn480       O493   2.020       .  S
Zn480       O485   1.941       .  S
O481        C492   1.277       .  A
O481       Cd486   2.082       .  S
Cd482       O484   2.067       .  S
Cd482       O485   1.996       .  S
Cd483       O487   2.090       .  S
Cd483       O496   2.094       .  S
Cd483       O485   2.018       .  S
O484        C494   1.276       .  A
O485       Cd486   1.994       .  S
Cd486       O488   2.062       .  S
O487        C494   1.278       .  A
C489        O493   1.275       .  A
C489        C921   1.485       .  S
C490        C881   1.483       .  S
C492        C941   1.486       .  S
C494        C901   1.482       .  S
C495        O496   1.278       .  A
C495        C961   1.483       .  S
C497       C2350   1.487       .  S
C497        N498   1.366       .  A
C497        N502   1.363   1_565  A
N498        C499   1.362       .  A
C499        C870   1.482       .  S
C499        N500   1.355       .  A
N500        C501   1.354   1_565  A
C501        C990   1.484       .  S
C501        N502   1.358       .  A
O503        C519   1.278       .  A
O503       Zn509   2.041       .  S
C504        O520   1.278       .  A
C504        O517   1.275       .  A
C504        C790   1.486       .  S
O505        C518   1.276       .  A
O505       Cd512   2.082       .  S
O506        C524   1.274       .  A
O506       Cd515   2.057       .  S
O507        C521   1.274       .  A
O507       Cd511   2.074       .  S
O508        C519   1.276       .  A
O508       Cd511   2.076       .  S
Zn509       O520   2.040       .  S
Zn509       O522   2.020       .  S
Zn509       O514   1.945       .  S
O510        C521   1.276       .  A
O510       Cd515   2.074       .  S
Cd511       O513   2.064       .  S
Cd511       O514   1.995       .  S
Cd512       O516   2.090       .  S
Cd512       O525   2.100       .  S
Cd512       O514   2.020       .  S
O513        C523   1.275       .  A
O514       Cd515   1.991       .  S
Cd515       O517   2.066       .  S
O516        C523   1.278       .  A
C518        O522   1.276       .  A
C518        C861   1.481       .  S
C519        C801   1.487       .  S
C521        C821   1.486       .  S
C523       C1010   1.478       .  S
C524        O525   1.278       .  A
C524        C841   1.479       .  S
O526        C542   1.275       .  A
O526       Zn532   2.031       .  S
C527        O543   1.278       .  A
C527        O540   1.275       .  A
C527        C721   1.482       .  S
O528        C541   1.277       .  A
O528       Cd535   2.082       .  S
O529        C547   1.276       .  A
O529       Cd538   2.074       .  S
O530        C544   1.275       .  A
O530       Cd534   2.063       .  S
O531        C542   1.276       .  A
O531       Cd534   2.075       .  S
Zn532       O543   2.038       .  S
Zn532       O545   2.015       .  S
Zn532       O537   1.943       .  S
O533        C544   1.279       .  A
O533       Cd538   2.090       .  S
Cd534       O536   2.065       .  S
Cd534       O537   1.990       .  S
Cd535       O539   2.090       .  S
Cd535       O548   2.085       .  S
Cd535       O537   2.012       .  S
O536        C546   1.275       .  A
O537       Cd538   1.995       .  S
Cd538       O540   2.066       .  S
O539        C546   1.277       .  A
C541        O545   1.276       .  A
C541        C750   1.483       .  S
C542        C761   1.487       .  S
C544        C670   1.486       .  S
C546        C710   1.484       .  S
C547        O548   1.276       .  A
C547        C681   1.481       .  S
C549       C1870   1.482       .  S
C549        N550   1.364   1_455  A
C549        N554   1.365       .  A
N550        C551   1.358       .  A
C551        C850   1.477       .  S
C551        N552   1.355   1_655  A
N552        C553   1.355       .  A
C553        C770   1.487       .  S
C553        N554   1.360       .  A
C555       C1670   1.488       .  S
C555        N556   1.363       .  A
C555        N560   1.368       .  A
N556        C557   1.355       .  A
C557       C1601   1.478   1_655  S
C557        N558   1.351   1_655  A
N558        C559   1.354   1_455  A
C559        C741   1.485   1_655  S
C559        N560   1.364       .  A
C561       C1690   1.487       .  S
C561        N562   1.365       .  A
C561        N566   1.365       .  A
N562        C563   1.359       .  A
C563        C730   1.483       .  S
C563        N564   1.352       .  A
N564        C565   1.354       .  A
C565       C1561   1.483       .  S
C565        N566   1.361       .  A
C567       C1710   1.488       .  S
C567        N568   1.364       .  A
C567        N572   1.364       .  A
N568        C569   1.361       .  A
C569       C1481   1.489   1_565  S
C569        N570   1.357   1_565  A
N570        C571   1.357   1_545  A
C571        C970   1.484   1_565  S
C571        N572   1.361       .  A
C573       C2070   1.475       .  S
C573        N574   1.364       .  A
C573        N578   1.363   1_655  A
N574        C575   1.360       .  A
C575        C910   1.475       .  S
C575        N576   1.353       .  A
N576        C577   1.354   1_655  A
C577       C1541   1.475       .  S
C577        N578   1.359       .  A
C579       C2101   1.482       .  S
C579        N580   1.362   1_655  A
C579        N584   1.363       .  A
N580        C581   1.358       .  A
C581       C1521   1.480       .  S
C581        N582   1.354   1_455  A
N582        C583   1.355       .  A
C583        C890   1.484       .  S
C583        N584   1.360       .  A
C585       C1730   1.481       .  S
C585        N586   1.364       .  A
C585        N590   1.367       .  A
N586        C587   1.357       .  A
C587       C1181   1.474       .  S
C587        N588   1.353       .  A
N588        C589   1.355       .  A
C589       C1090   1.489       .  S
C589        N590   1.363       .  A
C591       C2290   1.491       .  S
C591        N592   1.367   1_545  A
C591        N596   1.368       .  A
N592        C593   1.359       .  A
C593       C1041   1.475       .  S
C593        N594   1.352   1_565  A
N594        C595   1.354       .  A
C595       C1401   1.488       .  S
C595        N596   1.362       .  A
C597       C2201   1.488       .  S
C597        N598   1.365       .  A
C597        N602   1.366   1_554  A
N598        C599   1.359       .  A
C599       C1161   1.477       .  S
C599        N600   1.354       .  A
N600        C601   1.353   1_554  A
C601        C661   1.487       .  S
C601        N602   1.361       .  A
C603       C1650   1.488       .  S
C603        N604   1.365       .  A
C603        N608   1.362       .  A
N604        C605   1.364       .  A
C605        C950   1.489       .  S
C605        N606   1.358       .  A
N606        C607   1.355       .  A
C607       C1430   1.478       .  S
C607        N608   1.358       .  A
C609       C2650   1.487       .  S
C609        N610   1.368       .  A
C609        N614   1.365       .  A
N610        C611   1.362       .  A
C611       C1130   1.482       .  S
C611        N612   1.352       .  A
N612        C613   1.351       .  A
C613       C1321   1.484       .  S
C613        N614   1.358       .  A
C615       C2250   1.489       .  S
C615        N616   1.364   1_554  A
C615        N620   1.365       .  A
N616        C617   1.359       .  A
C617        C690   1.477       .  S
C617        N618   1.354   1_556  A
N618        C619   1.356       .  A
C619       C1150   1.487       .  S
C619        N620   1.362       .  A
C621       C2150   1.482       .  S
C621        N622   1.363   1_565  A
C621        N626   1.365       .  A
N622        C623   1.358       .  A
C623       C1381   1.485       .  S
C623        N624   1.353   1_545  A
N624        C625   1.355       .  A
C625       C1021   1.483       .  S
C625        N626   1.360       .  A
C627       C2410   1.486       .  S
C627        N628   1.367       .  A
C627        N632   1.365       .  A
N628        C629   1.362       .  A
C629       C1350   1.491       .  S
C629        N630   1.356       .  A
N630        C631   1.354       .  A
C631       C1450   1.474       .  S
C631        N632   1.358       .  A
C633       C1850   1.485       .  S
C633        N634   1.364       .  A
C633        N638   1.367       .  A
N634        C635   1.357       .  A
C635       C1581   1.485       .  S
C635        N636   1.353       .  A
N636        C637   1.355       .  A
C637       C1310   1.487       .  S
C637        N638   1.363       .  A
C639       C1810   1.487       .  S
C639        N640   1.367       .  A
C639        N644   1.366       .  A
N640        C641   1.363       .  A
C641        C830   1.489   1_455  S
C641        N642   1.355       .  A
N642        C643   1.353       .  A
C643        C701   1.474       .  S
C643        N644   1.359       .  A
C645       C1761   1.486       .  S
C645        N646   1.365   1_554  A
C645        N650   1.364       .  A
N646        C647   1.361       .  A
C647        C810   1.487   1_545  S
C647        N648   1.354   1_556  A
N648        C649   1.355       .  A
C649       C1070   1.483       .  S
C649        N650   1.360       .  A
C651       C1790   1.482       .  S
C651        N652   1.365       .  A
C651        N656   1.363   1_545  A
N652        C653   1.362       .  A
C653        C930   1.479       .  S
C653        N654   1.357       .  A
N654        C655   1.357   1_545  A
C655        C781   1.489       .  S
C655        N656   1.361       .  A
C657        C658   1.410       .  A
C657        C662   1.403       .  A
C657        H667   1.083       .  S
C658        C663   1.492       .  S
C658        C659   1.405       .  A
C659        C660   1.395       .  A
C659        H664   1.082       .  S
C660        C661   1.408       .  A
C660        H665   1.083       .  S
C661        C662   1.405       .  A
C662        H666   1.083       .  S
C663        C668   1.405       .  A
C663        C672   1.410       .  A
C668        C669   1.397       .  A
C668        H673   1.082       .  S
C669        C670   1.407       .  A
C669        H674   1.083       .  S
C670        C671   1.405       .  A
C671        C672   1.401       .  A
C671        H675   1.083       .  S
C672        H676   1.083       .  S
C677        C678   1.406       .  A
C677        C682   1.403       .  A
C677        H687   1.083       .  S
C678        C683   1.484       .  S
C678        C679   1.404       .  A
C679        C680   1.398       .  A
C679        H684   1.083       .  S
C680        C681   1.405       .  A
C680        H685   1.083       .  S
C681        C682   1.406       .  A
C682        H686   1.083       .  S
C683        C688   1.404       .  A
C683        C692   1.407       .  A
C688        C689   1.398       .  A
C688        H693   1.083       .  S
C689        C690   1.404       .  A
C689        H694   1.084   1_556  S
C690        C691   1.404       .  A
C691        C692   1.402       .  A
C691        H695   1.083       .  S
C692        H696   1.083       .  S
C697        C698   1.411       .  A
C697        C702   1.406   1_556  A
C697        H707   1.082       .  S
C698        C703   1.496       .  S
C698        C699   1.408       .  A
C699        C700   1.394       .  A
C699        H704   1.082       .  S
C700        C701   1.401   1_556  A
C700        H705   1.084       .  S
C701        C702   1.403       .  A
C702        H706   1.083       .  S
C703        C708   1.409       .  A
C703        C712   1.408       .  A
C708        C709   1.405       .  A
C708        H713   1.082       .  S
C709        C710   1.407       .  A
C709        H714   1.083       .  S
C710        C711   1.404       .  A
C711        C712   1.395       .  A
C711        H715   1.083       .  S
C712        H716   1.083       .  S
C717        C718   1.408       .  A
C717        C722   1.400       .  A
C717        H727   1.083       .  S
C718        C723   1.489       .  S
C718        C719   1.405       .  A
C719        C720   1.397       .  A
C719        H724   1.082       .  S
C720        C721   1.406       .  A
C720        H725   1.083       .  S
C721        C722   1.405       .  A
C722        H726   1.083       .  S
C723        C728   1.404       .  A
C723        C732   1.409       .  A
C728        C729   1.394       .  A
C728        H733   1.082       .  S
C729        C730   1.406       .  A
C729        H734   1.083       .  S
C730        C731   1.405       .  A
C731        C732   1.402       .  A
C731        H735   1.083       .  S
C732        H736   1.083       .  S
C737        C738   1.407       .  A
C737        C742   1.407       .  A
C737        H747   1.083       .  S
C738        C743   1.480       .  S
C738        C739   1.400       .  A
C739        C740   1.391       .  A
C739        H744   1.084       .  S
C740        C741   1.408       .  A
C740        H745   1.083       .  S
C741        C742   1.407       .  A
C742        H746   1.083   1_455  S
C743        C748   1.404       .  A
C743        C752   1.404       .  A
C748        C749   1.394       .  A
C748        H753   1.083       .  S
C749        C750   1.405       .  A
C749        H754   1.083       .  S
C750        C751   1.409       .  A
C751        C752   1.403       .  A
C751        H755   1.083       .  S
C752        H756   1.083       .  S
C757        C758   1.406       .  A
C757        C762   1.401       .  A
C757        H767   1.083       .  S
C758        C763   1.493       .  S
C758        C759   1.408       .  A
C759        C760   1.399       .  A
C759        H764   1.082       .  S
C760        C761   1.405       .  A
C760        H765   1.083       .  S
C761        C762   1.407       .  A
C762        H766   1.083       .  S
C763        C768   1.409       .  A
C763        C772   1.405       .  A
C768        C769   1.404       .  A
C768        H773   1.082       .  S
C769        C770   1.406       .  A
C769        H774   1.083       .  S
C770        C771   1.407       .  A
C771        C772   1.394       .  A
C771        H775   1.083       .  S
C772        H776   1.083       .  S
C777        C778   1.404       .  A
C777        C782   1.397       .  A
C777        H787   1.083       .  S
C778        C783   1.487       .  S
C778        C779   1.406   1_655  A
C779        C780   1.403       .  A
C779        H784   1.083       .  S
C780        C781   1.408       .  A
C780        H785   1.082       .  S
C781        C782   1.408   1_455  A
C782        H786   1.083       .  S
C783        C788   1.406       .  A
C783        C792   1.404       .  A
C788        C789   1.399       .  A
C788        H793   1.083       .  S
C789        C790   1.405       .  A
C789        H794   1.083       .  S
C790        C791   1.409       .  A
C791        C792   1.400       .  A
C791        H795   1.083       .  S
C792        H796   1.083       .  S
C797        C798   1.407       .  A
C797        C802   1.400       .  A
C797        H807   1.083       .  S
C798        C803   1.490       .  S
C798        C799   1.406       .  A
C799        C800   1.401       .  A
C799        H804   1.083       .  S
C800        C801   1.407       .  A
C800        H805   1.083       .  S
C801        C802   1.406       .  A
C802        H806   1.083       .  S
C803        C808   1.404       .  A
C803        C812   1.408       .  A
C808        C809   1.396       .  A
C808        H813   1.083       .  S
C809        C810   1.408       .  A
C809        H814   1.083   1_556  S
C810        C811   1.406   1_565  A
C811        C812   1.404   1_545  A
C811        H815   1.083       .  S
C812        H816   1.083       .  S
C817        C818   1.408       .  A
C817        C822   1.397       .  A
C817        H827   1.082       .  S
C818        C823   1.494       .  S
C818        C819   1.407       .  A
C819        C820   1.402       .  A
C819        H824   1.083       .  S
C820        C821   1.408       .  A
C820        H825   1.083       .  S
C821        C822   1.404       .  A
C822        H826   1.083       .  S
C823        C828   1.404       .  A
C823        C832   1.410       .  A
C828        C829   1.393       .  A
C828        H833   1.083       .  S
C829        C830   1.407   1_556  A
C829        H834   1.082       .  S
C830        C831   1.407       .  A
C831        C832   1.407   1_554  A
C831        H835   1.083       .  S
C832        H836   1.082   1_556  S
C837        C838   1.406       .  A
C837        C842   1.392       .  A
C837        H847   1.083       .  S
C838        C843   1.489       .  S
C838        C839   1.408       .  A
C839        C840   1.406       .  A
C839        H844   1.082       .  S
C840        C841   1.406       .  A
C840        H845   1.083       .  S
C841        C842   1.402       .  A
C842        H846   1.083       .  S
C843        C848   1.405       .  A
C843        C852   1.409       .  A
C848        C849   1.391       .  A
C848        H853   1.083       .  S
C849        C850   1.401       .  A
C849        H854   1.084   1_655  S
C850        C851   1.406       .  A
C851        C852   1.407       .  A
C851        H855   1.083       .  S
C852        H856   1.083       .  S
C857        C858   1.406       .  A
C857        C862   1.404       .  A
C857        H867   1.083       .  S
C858        C863   1.486       .  S
C858        C859   1.406       .  A
C859        C860   1.395       .  A
C859        H864   1.083       .  S
C860        C861   1.404       .  A
C860        H865   1.083       .  S
C861        C862   1.407       .  A
C862        H866   1.083       .  S
C863        C868   1.403       .  A
C863        C872   1.408       .  A
C868        C869   1.394       .  A
C868        H873   1.083       .  S
C869        C870   1.406       .  A
C869        H874   1.083       .  S
C870        C871   1.406       .  A
C871        C872   1.405       .  A
C871        H875   1.083       .  S
C872        H876   1.083       .  S
C877        C878   1.405       .  A
C877        C882   1.397       .  A
C877        H887   1.083       .  S
C878        C883   1.487       .  S
C878        C879   1.408       .  A
C879        C880   1.399       .  A
C879        H884   1.083       .  S
C880        C881   1.405       .  A
C880        H885   1.083       .  S
C881        C882   1.407       .  A
C882        H886   1.083       .  S
C883        C888   1.408       .  A
C883        C892   1.404       .  A
C888        C889   1.402       .  A
C888        H893   1.082       .  S
C889        C890   1.405       .  A
C889        H894   1.083       .  S
C890        C891   1.407       .  A
C891        C892   1.394       .  A
C891        H895   1.083       .  S
C892        H896   1.083       .  S
C897        C898   1.407       .  A
C897        C902   1.401       .  A
C897        H907   1.083       .  S
C898        C903   1.483       .  S
C898        C899   1.403       .  A
C899        C900   1.398       .  A
C899        H904   1.083       .  S
C900        C901   1.407       .  A
C900        H905   1.083       .  S
C901        C902   1.405       .  A
C902        H906   1.083       .  S
C903        C908   1.402       .  A
C903        C912   1.408       .  A
C908        C909   1.395       .  A
C908        H913   1.083       .  S
C909        C910   1.405       .  A
C909        H914   1.083       .  S
C910        C911   1.403       .  A
C911        C912   1.403       .  A
C911        H915   1.083       .  S
C912        H916   1.083       .  S
C917        C918   1.404       .  A
C917        C922   1.400       .  A
C917        H927   1.083       .  S
C918        C923   1.488       .  S
C918        C919   1.407       .  A
C919        C920   1.403       .  A
C919        H924   1.083       .  S
C920        C921   1.405       .  A
C920        H925   1.083       .  S
C921        C922   1.407       .  A
C922        H926   1.083       .  S
C923        C928   1.409       .  A
C923        C932   1.404       .  A
C928        C929   1.404   1_655  A
C928        H933   1.083       .  S
C929        C930   1.403       .  A
C929        H934   1.083       .  S
C930        C931   1.405   1_455  A
C931        C932   1.399       .  A
C931        H935   1.083       .  S
C932        H936   1.083       .  S
C937        C938   1.406       .  A
C937        C942   1.399       .  A
C937        H947   1.083       .  S
C938        C943   1.493       .  S
C938        C939   1.409       .  A
C939        C940   1.400       .  A
C939        H944   1.082       .  S
C940        C941   1.406       .  A
C940        H945   1.083       .  S
C941        C942   1.407       .  A
C942        H946   1.083       .  S
C943        C948   1.409       .  A
C943        C952   1.405       .  A
C948        C949   1.404       .  A
C948        H953   1.082       .  S
C949        C950   1.407       .  A
C949        H954   1.083       .  S
C950        C951   1.408       .  A
C951        C952   1.396       .  A
C951        H955   1.083       .  S
C952        H956   1.083       .  S
C957        C958   1.400       .  A
C957        C962   1.395       .  A
C957        H967   1.084       .  S
C958        C963   1.476       .  S
C958        C959   1.405       .  A
C959        C960   1.405       .  A
C959        H964   1.083       .  S
C960        C961   1.408       .  A
C960        H965   1.083       .  S
C961        C962   1.406       .  A
C962        H966   1.083       .  S
C963        C968   1.404       .  A
C963        C972   1.400       .  A
C968        C969   1.403   1_545  A
C968        H973   1.083   1_545  S
C969        C970   1.407   1_565  A
C969        H974   1.083       .  S
C970        C971   1.407       .  A
C971        C972   1.397       .  A
C971        H975   1.083       .  S
C972        H976   1.083       .  S
C977        C978   1.407       .  A
C977        C982   1.397       .  A
C977        H987   1.083       .  S
C978        C983   1.487       .  S
C978        C979   1.405       .  A
C979        C980   1.399       .  A
C979        H984   1.082       .  S
C980        C981   1.408       .  A
C980        H985   1.083       .  S
C981        C982   1.404       .  A
C982        H986   1.083       .  S
C983        C988   1.404       .  A
C983        C992   1.407       .  A
C988        C989   1.393       .  A
C988        H993   1.083       .  S
C989        C990   1.406       .  A
C989        H994   1.083       .  S
C990        C991   1.407       .  A
C991        C992   1.403       .  A
C991        H995   1.082       .  S
C992        H996   1.083       .  S
C997        C998   1.402       .  A
C997       C1002   1.396       .  A
C997       H1007   1.084       .  S
C998       C1003   1.480       .  S
C998        C999   1.407       .  A
C999       C1000   1.403       .  A
C999       H1004   1.083       .  S
C1000      C1001   1.404       .  A
C1000      H1005   1.083       .  S
C1001      C1002   1.405       .  A
C1002      H1006   1.083       .  S
C1003      C1008   1.406       .  A
C1003      C1012   1.402       .  A
C1008      C1009   1.403       .  A
C1008      H1013   1.083       .  S
C1009      C1010   1.405       .  A
C1009      H1014   1.083       .  S
C1010      C1011   1.405       .  A
C1011      C1012   1.396       .  A
C1011      H1015   1.083       .  S
C1012      H1016   1.083       .  S
C1017      C1018   1.410       .  A
C1017      C1022   1.406       .  A
C1017      H1027   1.083       .  S
C1018      C1023   1.490       .  S
C1018      C1019   1.404       .  A
C1019      C1020   1.390       .  A
C1019      H1024   1.082       .  S
C1020      C1021   1.404       .  A
C1020      H1025   1.083       .  S
C1021      C1022   1.407       .  A
C1022      H1026   1.083       .  S
C1023      C1028   1.407       .  A
C1023      C1032   1.407       .  A
C1028      C1029   1.402       .  A
C1028      H1033   1.083       .  S
C1029      C1030   1.407       .  A
C1029      H1034   1.083       .  S
C1030      C1031   1.403       .  A
C1031      C1032   1.395       .  A
C1031      H1035   1.083       .  S
C1032      H1036   1.083       .  S
C1037      C1038   1.406       .  A
C1037      C1042   1.393       .  A
C1037      H1047   1.083       .  S
C1038      C1043   1.490       .  S
C1038      C1039   1.409       .  A
C1039      C1040   1.407       .  A
C1039      H1044   1.082       .  S
C1040      C1041   1.405       .  A
C1040      H1045   1.083       .  S
C1041      C1042   1.401       .  A
C1042      H1046   1.084       .  S
C1043      C1048   1.404       .  A
C1043      C1052   1.408       .  A
C1048      C1049   1.392       .  A
C1048      H1053   1.083       .  S
C1049      C1050   1.405       .  A
C1049      H1054   1.083       .  S
C1050      C1051   1.408       .  A
C1051      C1052   1.408       .  A
C1051      H1055   1.082       .  S
C1052      H1056   1.083       .  S
C1057      C1058   1.406       .  A
C1057      C1062   1.400       .  A
C1057      H1067   1.082       .  S
C1058      C1063   1.487       .  S
C1058      C1059   1.407       .  A
C1059      C1060   1.395       .  A
C1059      H1064   1.083       .  S
C1060      C1061   1.403       .  A
C1060      H1065   1.083       .  S
C1061      C1062   1.406       .  A
C1062      H1066   1.083       .  S
C1063      C1068   1.408       .  A
C1063      C1072   1.404       .  A
C1068      C1069   1.404   1_565  A
C1068      H1073   1.083   1_565  S
C1069      C1070   1.406       .  A
C1069      H1074   1.083       .  S
C1070      C1071   1.405   1_545  A
C1071      C1072   1.391       .  A
C1071      H1075   1.083       .  S
C1072      H1076   1.083       .  S
C1077      C1078   1.406       .  A
C1077      C1082   1.394       .  A
C1077      H1087   1.083       .  S
C1078      C1083   1.490       .  S
C1078      C1079   1.408       .  A
C1079      C1080   1.405       .  A
C1079      H1084   1.083       .  S
C1080      C1081   1.406       .  A
C1080      H1085   1.083       .  S
C1081      C1082   1.405       .  A
C1082      H1086   1.083       .  S
C1083      C1088   1.408       .  A
C1083      C1092   1.403       .  A
C1088      C1089   1.405       .  A
C1088      H1093   1.083       .  S
C1089      C1090   1.406       .  A
C1089      H1094   1.083       .  S
C1090      C1091   1.408       .  A
C1091      C1092   1.394       .  A
C1091      H1095   1.083       .  S
C1092      H1096   1.083       .  S
C1097      C1098   1.408       .  A
C1097      C1102   1.407       .  A
C1097      H1107   1.083       .  S
C1098      C1103   1.487       .  S
C1098      C1099   1.402       .  A
C1099      C1100   1.391       .  A
C1099      H1104   1.083       .  S
C1100      C1101   1.407       .  A
C1100      H1105   1.083       .  S
C1101      C1102   1.408       .  A
C1102      H1106   1.083       .  S
C1103      C1108   1.404       .  A
C1103      C1112   1.407       .  A
C1108      C1109   1.391       .  A
C1108      H1113   1.083       .  S
C1109      C1110   1.406       .  A
C1109      H1114   1.083       .  S
C1110      C1111   1.408       .  A
C1111      C1112   1.406       .  A
C1111      H1115   1.083       .  S
C1112      H1116   1.083       .  S
C1117      C1118   1.403       .  A
C1117      C1122   1.394       .  A
C1117      H1127   1.083       .  S
C1118      C1123   1.477       .  S
C1118      C1119   1.402       .  A
C1119      C1120   1.402       .  A
C1119      H1124   1.083       .  S
C1120      C1121   1.409       .  A
C1120      H1125   1.083       .  S
C1121      C1122   1.405       .  A
C1122      H1126   1.083       .  S
C1123      C1128   1.407       .  A
C1123      C1132   1.399       .  A
C1128      C1129   1.406       .  A
C1128      H1133   1.083       .  S
C1129      C1130   1.406       .  A
C1129      H1134   1.083       .  S
C1130      C1131   1.407       .  A
C1131      C1132   1.390       .  A
C1131      H1135   1.083       .  S
C1132      H1136   1.084       .  S
C1137      C1138   1.405       .  A
C1137      C1142   1.400       .  A
C1137      H1147   1.082       .  S
C1138      C1143   1.490       .  S
C1138      C1139   1.407       .  A
C1139      C1140   1.398       .  A
C1139      H1144   1.083       .  S
C1140      C1141   1.405       .  A
C1140      H1145   1.083       .  S
C1141      C1142   1.408       .  A
C1142      H1146   1.083       .  S
C1143      C1148   1.408       .  A
C1143      C1152   1.404       .  A
C1148      C1149   1.404       .  A
C1148      H1153   1.083       .  S
C1149      C1150   1.407       .  A
C1149      H1154   1.083       .  S
C1150      C1151   1.407       .  A
C1151      C1152   1.394       .  A
C1151      H1155   1.083       .  S
C1152      H1156   1.083       .  S
C1157      C1158   1.402       .  A
C1157      C1162   1.392       .  A
C1157      H1167   1.084       .  S
C1158      C1163   1.479       .  S
C1158      C1159   1.406       .  A
C1159      C1160   1.405       .  A
C1159      H1164   1.083       .  S
C1160      C1161   1.406       .  A
C1160      H1165   1.083       .  S
C1161      C1162   1.404       .  A
C1162      H1166   1.083       .  S
C1163      C1168   1.404       .  A
C1163      C1172   1.402       .  A
C1168      C1169   1.405       .  A
C1168      H1173   1.083       .  S
C1169      C1170   1.409       .  A
C1169      H1174   1.083       .  S
C1170      C1171   1.405       .  A
C1171      C1172   1.391       .  A
C1171      H1175   1.083       .  S
C1172      H1176   1.084       .  S
C1177      C1178   1.409       .  A
C1177      C1182   1.404       .  A
C1177      H1187   1.082       .  S
C1178      C1183   1.491       .  S
C1178      C1179   1.407       .  A
C1179      C1180   1.393       .  A
C1179      H1184   1.083       .  S
C1180      C1181   1.401       .  A
C1180      H1185   1.084       .  S
C1181      C1182   1.403       .  A
C1182      H1186   1.083       .  S
C1183      C1188   1.408       .  A
C1183      C1192   1.407       .  A
C1188      C1189   1.404       .  A
C1188      H1193   1.082       .  S
C1189      C1190   1.406       .  A
C1189      H1194   1.083       .  S
C1190      C1191   1.403       .  A
C1191      C1192   1.394       .  A
C1191      H1195   1.083       .  S
C1192      H1196   1.083       .  S
C1197      C1198   1.408   1_556  A
C1197      C1202   1.403       .  A
C1197      H1207   1.082       .  S
C1198      C1203   1.485       .  S
C1198      C1199   1.403       .  A
C1199      C1200   1.390       .  A
C1199      H1204   1.083       .  S
C1200      C1201   1.406   1_554  A
C1200      H1205   1.082       .  S
C1201      C1202   1.406       .  A
C1202      H1206   1.083       .  S
C1203      C1208   1.405       .  A
C1203      C1212   1.407       .  A
C1208      C1209   1.399       .  A
C1208      H1213   1.083       .  S
C1209      C1210   1.407       .  A
C1209      H1214   1.083       .  S
C1210      C1211   1.403       .  A
C1211      C1212   1.394       .  A
C1211      H1215   1.083       .  S
C1212      H1216   1.083       .  S
C1217      C1218   1.408   1_556  A
C1217      C1222   1.402       .  A
C1217      H1227   1.082       .  S
C1218      C1223   1.485       .  S
C1218      C1219   1.404       .  A
C1219      C1220   1.391       .  A
C1219      H1224   1.083       .  S
C1220      C1221   1.406   1_554  A
C1220      H1225   1.083       .  S
C1221      C1222   1.405       .  A
C1222      H1226   1.083       .  S
C1223      C1228   1.405       .  A
C1223      C1232   1.407       .  A
C1228      C1229   1.398       .  A
C1228      H1233   1.083       .  S
C1229      C1230   1.406       .  A
C1229      H1234   1.083       .  S
C1230      C1231   1.404       .  A
C1231      C1232   1.396       .  A
C1231      H1235   1.083       .  S
C1232      H1236   1.083       .  S
C1237      C1238   1.410       .  A
C1237      C1242   1.405       .  A
C1237      H1247   1.083       .  S
C1238      C1243   1.494       .  S
C1238      C1239   1.405       .  A
C1239      C1240   1.394       .  A
C1239      H1244   1.082       .  S
C1240      C1241   1.407       .  A
C1240      H1245   1.083       .  S
C1241      C1242   1.406       .  A
C1242      H1246   1.083       .  S
C1243      C1248   1.407       .  A
C1243      C1252   1.409       .  A
C1248      C1249   1.400       .  A
C1248      H1253   1.082       .  S
C1249      C1250   1.406       .  A
C1249      H1254   1.083       .  S
C1250      C1251   1.404       .  A
C1251      C1252   1.399       .  A
C1251      H1255   1.083       .  S
C1252      H1256   1.083       .  S
C1257      C1258   1.408       .  A
C1257      C1262   1.408       .  A
C1257      H1267   1.083       .  S
C1258      C1263   1.486       .  S
C1258      C1259   1.402       .  A
C1259      C1260   1.394       .  A
C1259      H1264   1.083       .  S
C1260      C1261   1.407       .  A
C1260      H1265   1.083       .  S
C1261      C1262   1.407       .  A
C1262      H1266   1.083       .  S
C1263      C1268   1.404       .  A
C1263      C1272   1.406       .  A
C1268      C1269   1.395       .  A
C1268      H1273   1.084       .  S
C1269      C1270   1.406       .  A
C1269      H1274   1.083       .  S
C1270      C1271   1.409       .  A
C1271      C1272   1.407       .  A
C1271      H1275   1.083       .  S
C1272      H1276   1.083       .  S
C1277      C1278   1.410       .  A
C1277      C1282   1.409       .  A
C1277      H1287   1.082       .  S
C1278      C1283   1.492       .  S
C1278      C1279   1.404       .  A
C1279      C1280   1.391       .  A
C1279      H1284   1.083       .  S
C1280      C1281   1.406       .  A
C1280      H1285   1.083       .  S
C1281      C1282   1.408       .  A
C1282      H1286   1.083       .  S
C1283      C1288   1.408       .  A
C1283      C1292   1.408       .  A
C1288      C1289   1.406       .  A
C1288      H1293   1.083       .  S
C1289      C1290   1.406       .  A
C1289      H1294   1.083       .  S
C1290      C1291   1.401       .  A
C1291      C1292   1.395       .  A
C1291      H1295   1.084       .  S
C1292      H1296   1.083       .  S
C1297      C1298   1.407       .  A
C1297      C1302   1.400       .  A
C1297      H1307   1.082       .  S
C1298      C1303   1.492       .  S
C1298      C1299   1.408       .  A
C1299      C1300   1.399       .  A
C1299      H1304   1.083       .  S
C1300      C1301   1.405       .  A
C1300      H1305   1.083       .  S
C1301      C1302   1.406       .  A
C1302      H1306   1.083       .  S
C1303      C1308   1.410       .  A
C1303      C1312   1.404       .  A
C1308      C1309   1.405       .  A
C1308      H1313   1.082       .  S
C1309      C1310   1.406       .  A
C1309      H1314   1.083       .  S
C1310      C1311   1.407       .  A
C1311      C1312   1.393       .  A
C1311      H1315   1.083       .  S
C1312      H1316   1.083       .  S
C1317      C1318   1.403       .  A
C1317      C1322   1.390       .  A
C1317      H1327   1.082       .  S
C1318      C1323   1.487       .  S
C1318      C1319   1.409       .  A
C1319      C1320   1.404       .  A
C1319      H1324   1.083       .  S
C1320      C1321   1.406       .  A
C1320      H1325   1.083       .  S
C1321      C1322   1.406       .  A
C1322      H1326   1.083       .  S
C1323      C1328   1.407       .  A
C1323      C1332   1.405       .  A
C1328      C1329   1.395       .  A
C1328      H1333   1.083       .  S
C1329      C1330   1.403       .  A
C1329      H1334   1.083       .  S
C1330      C1331   1.408       .  A
C1331      C1332   1.400       .  A
C1331      H1335   1.083       .  S
C1332      H1336   1.082       .  S
C1337      C1338   1.406       .  A
C1337      C1342   1.404       .  A
C1337      H1347   1.083       .  S
C1338      C1343   1.491       .  S
C1338      C1339   1.407       .  A
C1339      C1340   1.398       .  A
C1339      H1344   1.083       .  S
C1340      C1341   1.405       .  A
C1340      H1345   1.083       .  S
C1341      C1342   1.408       .  A
C1342      H1346   1.083       .  S
C1343      C1348   1.409       .  A
C1343      C1352   1.404       .  A
C1348      C1349   1.407       .  A
C1348      H1353   1.082       .  S
C1349      C1350   1.409       .  A
C1349      H1354   1.083       .  S
C1350      C1351   1.407       .  A
C1351      C1352   1.394       .  A
C1351      H1355   1.082       .  S
C1352      H1356   1.083       .  S
C1357      C1358   1.410       .  A
C1357      C1362   1.405       .  A
C1357      H1367   1.082       .  S
C1358      C1363   1.495       .  S
C1358      C1359   1.408       .  A
C1359      C1360   1.396       .  A
C1359      H1364   1.083       .  S
C1360      C1361   1.401       .  A
C1360      H1365   1.084       .  S
C1361      C1362   1.403       .  A
C1362      H1366   1.083       .  S
C1363      C1368   1.408       .  A
C1363      C1372   1.407       .  A
C1368      C1369   1.405       .  A
C1368      H1373   1.082       .  S
C1369      C1370   1.407       .  A
C1369      H1374   1.083       .  S
C1370      C1371   1.406       .  A
C1371      C1372   1.396       .  A
C1371      H1375   1.083       .  S
C1372      H1376   1.083       .  S
C1377      C1378   1.404       .  A
C1377      C1382   1.393       .  A
C1377      H1387   1.082       .  S
C1378      C1383   1.489       .  S
C1378      C1379   1.408       .  A
C1379      C1380   1.404       .  A
C1379      H1384   1.083       .  S
C1380      C1381   1.407       .  A
C1380      H1385   1.082       .  S
C1381      C1382   1.406       .  A
C1382      H1386   1.083       .  S
C1383      C1388   1.407       .  A
C1383      C1392   1.405       .  A
C1388      C1389   1.398       .  A
C1388      H1393   1.083       .  S
C1389      C1390   1.405       .  A
C1389      H1394   1.083       .  S
C1390      C1391   1.408       .  A
C1391      C1392   1.400       .  A
C1391      H1395   1.083       .  S
C1392      H1396   1.082       .  S
C1397      C1398   1.403       .  A
C1397      C1402   1.394       .  A
C1397      H1407   1.083       .  S
C1398      C1403   1.489       .  S
C1398      C1399   1.409       .  A
C1399      C1400   1.406       .  A
C1399      H1404   1.083       .  S
C1400      C1401   1.407       .  A
C1400      H1405   1.083       .  S
C1401      C1402   1.407       .  A
C1402      H1406   1.083       .  S
C1403      C1408   1.407       .  A
C1403      C1412   1.406       .  A
C1408      C1409   1.404       .  A
C1408      H1413   1.083       .  S
C1409      C1410   1.407       .  A
C1409      H1414   1.083       .  S
C1410      C1411   1.404       .  A
C1411      C1412   1.396       .  A
C1411      H1415   1.083       .  S
C1412      H1416   1.083       .  S
C1417      C1418   1.402       .  A
C1417      C1422   1.395       .  A
C1417      H1427   1.084       .  S
C1418      C1423   1.480       .  S
C1418      C1419   1.406       .  A
C1419      C1420   1.404       .  A
C1419      H1424   1.083       .  S
C1420      C1421   1.406       .  A
C1420      H1425   1.083       .  S
C1421      C1422   1.405       .  A
C1422      H1426   1.083       .  S
C1423      C1428   1.405       .  A
C1423      C1432   1.403       .  A
C1428      C1429   1.400       .  A
C1428      H1433   1.083       .  S
C1429      C1430   1.404       .  A
C1429      H1434   1.083       .  S
C1430      C1431   1.406       .  A
C1431      C1432   1.399       .  A
C1431      H1435   1.083       .  S
C1432      H1436   1.084       .  S
C1437      C1438   1.406       .  A
C1437      C1442   1.394       .  A
C1437      H1447   1.083       .  S
C1438      C1443   1.492       .  S
C1438      C1439   1.408       .  A
C1439      C1440   1.406       .  A
C1439      H1444   1.082       .  S
C1440      C1441   1.408       .  A
C1440      H1445   1.083       .  S
C1441      C1442   1.405       .  A
C1442      H1446   1.083       .  S
C1443      C1448   1.407       .  A
C1443      C1452   1.410       .  A
C1448      C1449   1.394       .  A
C1448      H1453   1.082       .  S
C1449      C1450   1.400       .  A
C1449      H1454   1.084       .  S
C1450      C1451   1.404       .  A
C1451      C1452   1.406       .  A
C1451      H1455   1.083       .  S
C1452      H1456   1.083       .  S
C1457      C1458   1.407       .  A
C1457      C1462   1.400       .  A
C1457      H1467   1.082       .  S
C1458      C1463   1.492       .  S
C1458      C1459   1.408       .  A
C1459      C1460   1.396       .  A
C1459      H1464   1.082       .  S
C1460      C1461   1.404       .  A
C1460      H1465   1.083       .  S
C1461      C1462   1.407       .  A
C1462      H1466   1.083       .  S
C1463      C1468   1.410       .  A
C1463      C1472   1.404       .  A
C1468      C1469   1.405       .  A
C1468      H1473   1.082       .  S
C1469      C1470   1.406       .  A
C1469      H1474   1.083       .  S
C1470      C1471   1.407       .  A
C1471      C1472   1.392       .  A
C1471      H1475   1.082       .  S
C1472      H1476   1.083       .  S
C1477      C1478   1.408       .  A
C1477      C1482   1.402   1_545  A
C1477      H1487   1.083   1_545  S
C1478      C1483   1.493       .  S
C1478      C1479   1.405       .  A
C1479      C1480   1.397       .  A
C1479      H1484   1.082       .  S
C1480      C1481   1.408       .  A
C1480      H1485   1.083       .  S
C1481      C1482   1.406   1_545  A
C1482      H1486   1.082       .  S
C1483      C1488   1.406       .  A
C1483      C1492   1.408       .  A
C1488      C1489   1.398       .  A
C1488      H1493   1.082       .  S
C1489      C1490   1.407       .  A
C1489      H1494   1.083       .  S
C1490      C1491   1.406       .  A
C1491      C1492   1.401       .  A
C1491      H1495   1.082       .  S
C1492      H1496   1.083       .  S
C1497      C1498   1.406       .  A
C1497      C1502   1.393       .  A
C1497      H1507   1.083       .  S
C1498      C1503   1.485       .  S
C1498      C1499   1.406       .  A
C1499      C1500   1.404       .  A
C1499      H1504   1.083       .  S
C1500      C1501   1.406       .  A
C1500      H1505   1.083       .  S
C1501      C1502   1.401       .  A
C1502      H1506   1.083       .  S
C1503      C1508   1.403       .  A
C1503      C1512   1.408       .  A
C1508      C1509   1.389       .  A
C1508      H1513   1.083       .  S
C1509      C1510   1.403       .  A
C1509      H1514   1.084       .  S
C1510      C1511   1.407       .  A
C1511      C1512   1.408       .  A
C1511      H1515   1.083       .  S
C1512      H1516   1.083       .  S
C1517      C1518   1.404       .  A
C1517      C1522   1.392       .  A
C1517      H1527   1.083       .  S
C1518      C1523   1.483       .  S
C1518      C1519   1.406       .  A
C1519      C1520   1.402       .  A
C1519      H1524   1.083       .  S
C1520      C1521   1.406       .  A
C1520      H1525   1.083       .  S
C1521      C1522   1.405       .  A
C1522      H1526   1.083       .  S
C1523      C1528   1.404       .  A
C1523      C1532   1.406       .  A
C1528      C1529   1.394       .  A
C1528      H1533   1.083       .  S
C1529      C1530   1.405       .  A
C1529      H1534   1.083       .  S
C1530      C1531   1.406       .  A
C1531      C1532   1.401       .  A
C1531      H1535   1.083       .  S
C1532      H1536   1.083       .  S
C1537      C1538   1.406       .  A
C1537      C1542   1.392       .  A
C1537      H1547   1.082       .  S
C1538      C1543   1.490       .  S
C1538      C1539   1.410       .  A
C1539      C1540   1.403       .  A
C1539      H1544   1.082       .  S
C1540      C1541   1.404       .  A
C1540      H1545   1.083       .  S
C1541      C1542   1.402       .  A
C1542      H1546   1.084       .  S
C1543      C1548   1.408       .  A
C1543      C1552   1.408       .  A
C1548      C1549   1.393       .  A
C1548      H1553   1.082       .  S
C1549      C1550   1.401       .  A
C1549      H1554   1.084       .  S
C1550      C1551   1.403       .  A
C1551      C1552   1.401       .  A
C1551      H1555   1.083       .  S
C1552      H1556   1.082       .  S
C1557      C1558   1.403       .  A
C1557      C1562   1.391       .  A
C1557      H1567   1.082       .  S
C1558      C1563   1.486       .  S
C1558      C1559   1.409       .  A
C1559      C1560   1.403       .  A
C1559      H1564   1.083       .  S
C1560      C1561   1.406       .  A
C1560      H1565   1.083       .  S
C1561      C1562   1.406       .  A
C1562      H1566   1.083       .  S
C1563      C1568   1.407       .  A
C1563      C1572   1.405       .  A
C1568      C1569   1.396       .  A
C1568      H1573   1.083       .  S
C1569      C1570   1.404       .  A
C1569      H1574   1.083       .  S
C1570      C1571   1.407       .  A
C1571      C1572   1.398       .  A
C1571      H1575   1.083       .  S
C1572      H1576   1.082       .  S
C1577      C1578   1.405       .  A
C1577      C1582   1.391       .  A
C1577      H1587   1.082       .  S
C1578      C1583   1.493       .  S
C1578      C1579   1.410       .  A
C1579      C1580   1.405       .  A
C1579      H1584   1.082       .  S
C1580      C1581   1.407       .  A
C1580      H1585   1.083       .  S
C1581      C1582   1.405       .  A
C1582      H1586   1.083       .  S
C1583      C1588   1.408       .  A
C1583      C1592   1.407       .  A
C1588      C1589   1.396       .  A
C1588      H1593   1.082       .  S
C1589      C1590   1.404       .  A
C1589      H1594   1.083       .  S
C1590      C1591   1.407       .  A
C1591      C1592   1.400       .  A
C1591      H1595   1.083       .  S
C1592      H1596   1.082       .  S
C1597      C1598   1.404       .  A
C1597      C1602   1.389       .  A
C1597      H1607   1.083       .  S
C1598      C1603   1.484       .  S
C1598      C1599   1.407       .  A
C1599      C1600   1.404       .  A
C1599      H1604   1.082       .  S
C1600      C1601   1.407       .  A
C1600      H1605   1.083   1_455  S
C1601      C1602   1.403       .  A
C1602      H1606   1.083       .  S
C1603      C1608   1.406       .  A
C1603      C1612   1.406       .  A
C1608      C1609   1.391       .  A
C1608      H1613   1.083       .  S
C1609      C1610   1.399       .  A
C1609      H1614   1.084       .  S
C1610      C1611   1.405       .  A
C1611      C1612   1.403       .  A
C1611      H1615   1.083       .  S
C1612      H1616   1.083       .  S
C1617      C1618   1.404       .  A
C1617      C1622   1.398       .  A
C1617      H1627   1.083       .  S
C1618      C1623   1.487       .  S
C1618      C1619   1.406       .  A
C1619      C1620   1.403       .  A
C1619      H1624   1.083       .  S
C1620      C1621   1.407       .  A
C1620      H1625   1.083       .  S
C1621      C1622   1.407       .  A
C1622      H1626   1.083       .  S
C1623      C1628   1.405       .  A
C1623      C1632   1.405       .  A
C1628      C1629   1.400       .  A
C1628      H1633   1.083       .  S
C1629      C1630   1.407       .  A
C1629      H1634   1.083       .  S
C1630      C1631   1.407       .  A
C1631      C1632   1.402       .  A
C1631      H1635   1.083       .  S
C1632      H1636   1.083       .  S
C1637      C1638   1.404       .  A
C1637      C1642   1.402       .  A
C1637      H1647   1.083       .  S
C1638      C1643   1.487       .  S
C1638      C1639   1.405       .  A
C1639      C1640   1.401       .  A
C1639      H1644   1.083       .  S
C1640      C1641   1.407       .  A
C1640      H1645   1.083       .  S
C1641      C1642   1.408       .  A
C1642      H1646   1.083       .  S
C1643      C1648   1.406       .  A
C1643      C1652   1.403       .  A
C1648      C1649   1.404       .  A
C1648      H1653   1.083       .  S
C1649      C1650   1.407       .  A
C1649      H1654   1.083       .  S
C1650      C1651   1.407       .  A
C1651      C1652   1.399       .  A
C1651      H1655   1.083       .  S
C1652      H1656   1.083       .  S
C1657      C1658   1.406       .  A
C1657      C1662   1.400       .  A
C1657      H1667   1.083       .  S
C1658      C1663   1.484       .  S
C1658      C1659   1.404       .  A
C1659      C1660   1.401       .  A
C1659      H1664   1.083       .  S
C1660      C1661   1.406       .  A
C1660      H1665   1.083       .  S
C1661      C1662   1.404       .  A
C1662      H1666   1.083       .  S
C1663      C1668   1.406       .  A
C1663      C1672   1.402       .  A
C1668      C1669   1.403       .  A
C1668      H1673   1.083       .  S
C1669      C1670   1.407       .  A
C1669      H1674   1.083       .  S
C1670      C1671   1.409       .  A
C1671      C1672   1.396       .  A
C1671      H1675   1.083       .  S
C1672      H1676   1.083       .  S
C1677      C1678   1.405       .  A
C1677      C1682   1.397       .  A
C1677      H1687   1.083       .  S
C1678      C1683   1.488       .  S
C1678      C1679   1.407       .  A
C1679      C1680   1.402       .  A
C1679      H1684   1.083       .  S
C1680      C1681   1.406       .  A
C1680      H1685   1.083       .  S
C1681      C1682   1.405       .  A
C1682      H1686   1.083       .  S
C1683      C1688   1.405       .  A
C1683      C1692   1.406       .  A
C1688      C1689   1.397       .  A
C1688      H1693   1.083       .  S
C1689      C1690   1.406       .  A
C1689      H1694   1.083       .  S
C1690      C1691   1.408       .  A
C1691      C1692   1.402       .  A
C1691      H1695   1.083       .  S
C1692      H1696   1.083       .  S
C1697      C1698   1.405       .  A
C1697      C1702   1.402       .  A
C1697      H1707   1.083       .  S
C1698      C1703   1.484       .  S
C1698      C1699   1.404       .  A
C1699      C1700   1.399       .  A
C1699      H1704   1.083       .  S
C1700      C1701   1.406       .  A
C1700      H1705   1.083       .  S
C1701      C1702   1.408       .  A
C1702      H1706   1.083       .  S
C1703      C1708   1.404       .  A
C1703      C1712   1.404       .  A
C1708      C1709   1.402       .  A
C1708      H1713   1.083       .  S
C1709      C1710   1.408       .  A
C1709      H1714   1.083       .  S
C1710      C1711   1.407       .  A
C1711      C1712   1.400       .  A
C1711      H1715   1.083       .  S
C1712      H1716   1.083       .  S
C1717      C1718   1.405       .  A
C1717      C1722   1.401       .  A
C1717      H1727   1.083       .  S
C1718      C1723   1.489       .  S
C1718      C1719   1.406       .  A
C1719      C1720   1.401       .  A
C1719      H1724   1.083       .  S
C1720      C1721   1.407       .  A
C1720      H1725   1.083       .  S
C1721      C1722   1.408       .  A
C1722      H1726   1.083       .  S
C1723      C1728   1.406       .  A
C1723      C1732   1.407       .  A
C1728      C1729   1.401       .  A
C1728      H1733   1.083       .  S
C1729      C1730   1.405       .  A
C1729      H1734   1.083       .  S
C1730      C1731   1.404       .  A
C1731      C1732   1.402       .  A
C1731      H1735   1.083       .  S
C1732      H1736   1.083       .  S
C1737      C1738   1.405       .  A
C1737      C1742   1.399       .  A
C1737      H1747   1.083       .  S
C1738      C1743   1.483       .  S
C1738      C1739   1.404       .  A
C1739      C1740   1.397       .  A
C1739      H1744   1.083       .  S
C1740      C1741   1.406       .  A
C1740      H1745   1.083       .  S
C1741      C1742   1.406       .  A
C1742      H1746   1.083       .  S
C1743      C1748   1.405       .  A
C1743      C1752   1.405       .  A
C1748      C1749   1.398       .  A
C1748      H1753   1.083       .  S
C1749      C1750   1.405       .  A
C1749      H1754   1.083       .  S
C1750      C1751   1.405       .  A
C1751      C1752   1.397       .  A
C1751      H1755   1.083       .  S
C1752      H1756   1.083       .  S
C1757      C1758   1.405   1_556  A
C1757      C1762   1.399       .  A
C1757      H1767   1.083       .  S
C1758      C1763   1.485       .  S
C1758      C1759   1.405       .  A
C1759      C1760   1.401       .  A
C1759      H1764   1.083       .  S
C1760      C1761   1.408       .  A
C1760      H1765   1.083       .  S
C1761      C1762   1.406   1_554  A
C1762      H1766   1.083       .  S
C1763      C1768   1.406       .  A
C1763      C1772   1.403   1_554  A
C1768      C1769   1.403       .  A
C1768      H1773   1.083       .  S
C1769      C1770   1.407   1_554  A
C1769      H1774   1.083       .  S
C1770      C1771   1.407       .  A
C1771      C1772   1.397       .  A
C1771      H1775   1.083       .  S
C1772      H1776   1.083       .  S
C1777      C1778   1.415   1_565  A
C1777      C1782   1.403       .  A
C1777      H1787   1.080       .  S
C1778      C1783   1.514       .  S
C1778      C1779   1.413       .  A
C1779      C1780   1.403       .  A
C1779      H1784   1.080       .  S
C1780      C1781   1.403   1_545  A
C1780      H1785   1.083       .  S
C1781      C1782   1.401       .  A
C1782      H1786   1.083       .  S
C1783      C1788   1.413   1_545  A
C1783      C1792   1.416       .  A
C1788      C1789   1.401       .  A
C1788      H1793   1.080       .  S
C1789      C1790   1.401   1_565  A
C1789      H1794   1.083       .  S
C1790      C1791   1.401       .  A
C1791      C1792   1.405       .  A
C1791      H1795   1.083       .  S
C1792      H1796   1.080       .  S
C1797      C1798   1.404       .  A
C1797      C1802   1.400       .  A
C1797      H1807   1.083       .  S
C1798      C1803   1.487       .  S
C1798      C1799   1.406   1_455  A
C1799      C1800   1.404       .  A
C1799      H1804   1.083       .  S
C1800      C1801   1.408   1_655  A
C1800      H1805   1.083       .  S
C1801      C1802   1.407       .  A
C1802      H1806   1.083       .  S
C1803      C1808   1.406       .  A
C1803      C1812   1.405       .  A
C1808      C1809   1.401       .  A
C1808      H1813   1.083       .  S
C1809      C1810   1.406       .  A
C1809      H1814   1.083       .  S
C1810      C1811   1.407       .  A
C1811      C1812   1.402       .  A
C1811      H1815   1.083       .  S
C1812      H1816   1.083       .  S
C1817      C1818   1.407       .  A
C1817      C1822   1.402       .  A
C1817      H1827   1.083       .  S
C1818      C1823   1.492       .  S
C1818      C1819   1.407       .  A
C1819      C1820   1.401       .  A
C1819      H1824   1.083       .  S
C1820      C1821   1.405       .  A
C1820      H1825   1.083       .  S
C1821      C1822   1.406       .  A
C1822      H1826   1.083       .  S
C1823      C1828   1.407       .  A
C1823      C1832   1.406       .  A
C1828      C1829   1.402       .  A
C1828      H1833   1.083       .  S
C1829      C1830   1.407       .  A
C1829      H1834   1.083       .  S
C1830      C1831   1.407       .  A
C1831      C1832   1.401       .  A
C1831      H1835   1.083       .  S
C1832      H1836   1.083       .  S
C1837      C1838   1.405       .  A
C1837      C1842   1.396       .  A
C1837      H1847   1.083       .  S
C1838      C1843   1.487       .  S
C1838      C1839   1.406       .  A
C1839      C1840   1.403       .  A
C1839      H1844   1.083       .  S
C1840      C1841   1.408       .  A
C1840      H1845   1.083       .  S
C1841      C1842   1.406       .  A
C1842      H1846   1.083       .  S
C1843      C1848   1.404       .  A
C1843      C1852   1.407       .  A
C1848      C1849   1.396       .  A
C1848      H1853   1.083       .  S
C1849      C1850   1.406       .  A
C1849      H1854   1.083       .  S
C1850      C1851   1.407       .  A
C1851      C1852   1.404       .  A
C1851      H1855   1.083       .  S
C1852      H1856   1.083       .  S
C1857      C1858   1.404   1_655  A
C1857      C1862   1.398       .  A
C1857      H1867   1.083       .  S
C1858      C1863   1.481       .  S
C1858      C1859   1.404       .  A
C1859      C1860   1.399       .  A
C1859      H1864   1.083       .  S
C1860      C1861   1.407   1_455  A
C1860      H1865   1.083       .  S
C1861      C1862   1.406       .  A
C1862      H1866   1.083       .  S
C1863      C1868   1.404   1_455  A
C1863      C1872   1.404       .  A
C1868      C1869   1.399       .  A
C1868      H1873   1.083       .  S
C1869      C1870   1.406   1_655  A
C1869      H1874   1.083       .  S
C1870      C1871   1.406       .  A
C1871      C1872   1.399       .  A
C1871      H1875   1.083       .  S
C1872      H1876   1.083       .  S
C1877      C1878   1.406       .  A
C1877      C1882   1.407       .  A
C1877      H1887   1.083       .  S
C1878      C1883   1.481       .  S
C1878      C1879   1.401       .  A
C1879      C1880   1.390       .  A
C1879      H1884   1.084       .  S
C1880      C1881   1.406       .  A
C1880      H1885   1.083       .  S
C1881      C1882   1.409       .  A
C1882      H1886   1.083       .  S
C1883      C1888   1.405       .  A
C1883      C1892   1.402       .  A
C1888      C1889   1.405   1_565  A
C1888      H1893   1.083       .  S
C1889      C1890   1.408   1_545  A
C1889      H1894   1.082       .  S
C1890      C1891   1.407       .  A
C1891      C1892   1.392       .  A
C1891      H1895   1.083       .  S
C1892      H1896   1.083       .  S
C1897      C1898   1.402       .  A
C1897      C1902   1.392       .  A
C1897      H1907   1.083       .  S
C1898      C1903   1.482       .  S
C1898      C1899   1.407       .  A
C1899      C1900   1.404       .  A
C1899      H1904   1.083       .  S
C1900      C1901   1.406       .  A
C1900      H1905   1.083       .  S
C1901      C1902   1.406       .  A
C1902      H1906   1.083   1_455  S
C1903      C1908   1.404       .  A
C1903      C1912   1.405       .  A
C1908      C1909   1.392       .  A
C1908      H1913   1.083       .  S
C1909      C1910   1.404       .  A
C1909      H1914   1.083       .  S
C1910      C1911   1.408       .  A
C1911      C1912   1.404       .  A
C1911      H1915   1.083       .  S
C1912      H1916   1.083       .  S
C1917      C1918   1.408       .  A
C1917      C1922   1.403       .  A
C1917      H1927   1.083       .  S
C1918      C1923   1.486       .  S
C1918      C1919   1.403       .  A
C1919      C1920   1.393       .  A
C1919      H1924   1.083       .  S
C1920      C1921   1.408       .  A
C1920      H1925   1.083       .  S
C1921      C1922   1.406       .  A
C1922      H1926   1.083       .  S
C1923      C1928   1.406       .  A
C1923      C1932   1.404       .  A
C1928      C1929   1.398       .  A
C1928      H1933   1.083       .  S
C1929      C1930   1.405       .  A
C1929      H1934   1.083       .  S
C1930      C1931   1.407       .  A
C1931      C1932   1.398       .  A
C1931      H1935   1.083       .  S
C1932      H1936   1.083       .  S
C1937      C1938   1.410       .  A
C1937      C1942   1.405       .  A
C1937      H1947   1.082       .  S
C1938      C1943   1.500       .  S
C1938      C1939   1.410       .  A
C1939      C1940   1.396       .  A
C1939      H1944   1.082       .  S
C1940      C1941   1.403       .  A
C1940      H1945   1.083       .  S
C1941      C1942   1.406       .  A
C1942      H1946   1.083       .  S
C1943      C1948   1.412       .  A
C1943      C1952   1.408       .  A
C1948      C1949   1.406       .  A
C1948      H1953   1.082       .  S
C1949      C1950   1.403       .  A
C1949      H1954   1.083       .  S
C1950      C1951   1.403       .  A
C1951      C1952   1.395       .  A
C1951      H1955   1.083       .  S
C1952      H1956   1.082       .  S
C1957      C1958   1.405       .  A
C1957      C1962   1.393       .  A
C1957      H1967   1.083       .  S
C1958      C1963   1.492       .  S
C1958      C1959   1.408       .  A
C1959      C1960   1.410       .  A
C1959      H1964   1.083       .  S
C1960      C1961   1.410       .  A
C1960      H1965   1.082       .  S
C1961      C1962   1.405       .  A
C1962      H1966   1.083       .  S
C1963      C1968   1.403       .  A
C1963      C1972   1.409       .  A
C1968      C1969   1.393       .  A
C1968      H1973   1.084       .  S
C1969      C1970   1.407       .  A
C1969      H1974   1.083       .  S
C1970      C1971   1.408       .  A
C1971      C1972   1.411       .  A
C1971      H1975   1.083       .  S
C1972      H1976   1.082       .  S
C1977      C1978   1.411       .  A
C1977      C1982   1.404   1_565  A
C1977      H1987   1.082       .  S
C1978      C1983   1.493       .  S
C1978      C1979   1.407       .  A
C1979      C1980   1.393       .  A
C1979      H1984   1.082       .  S
C1980      C1981   1.400       .  A
C1980      H1985   1.084       .  S
C1981      C1982   1.403   1_565  A
C1982      H1986   1.083       .  S
C1983      C1988   1.408       .  A
C1983      C1992   1.408       .  A
C1988      C1989   1.403       .  A
C1988      H1993   1.082       .  S
C1989      C1990   1.407       .  A
C1989      H1994   1.083       .  S
C1990      C1991   1.403       .  A
C1991      C1992   1.393       .  A
C1991      H1995   1.083       .  S
C1992      H1996   1.082       .  S
C1997      C1998   1.410       .  A
C1997      C2002   1.397       .  A
C1997      H2007   1.081       .  S
C1998      C2003   1.502       .  S
C1998      C1999   1.410       .  A
C1999      C2000   1.405       .  A
C1999      H2004   1.082       .  S
C2000      C2001   1.407       .  A
C2000      H2005   1.083       .  S
C2001      C2002   1.403       .  A
C2002      H2006   1.083       .  S
C2003      C2008   1.409       .  A
C2003      C2012   1.413       .  A
C2008      C2009   1.396       .  A
C2008      H2013   1.082       .  S
C2009      C2010   1.402       .  A
C2009      H2014   1.083       .  S
C2010      C2011   1.402       .  A
C2011      C2012   1.405       .  A
C2011      H2015   1.083       .  S
C2012      H2016   1.081       .  S
C2017      C2018   1.402       .  A
C2017      C2022   1.390       .  A
C2017      H2027   1.083       .  S
C2018      C2023   1.481       .  S
C2018      C2019   1.407       .  A
C2019      C2020   1.404       .  A
C2019      H2024   1.083       .  S
C2020      C2021   1.406       .  A
C2020      H2025   1.083       .  S
C2021      C2022   1.405       .  A
C2022      H2026   1.084       .  S
C2023      C2028   1.404       .  A
C2023      C2032   1.405       .  A
C2028      C2029   1.391       .  A
C2028      H2033   1.084       .  S
C2029      C2030   1.404       .  A
C2029      H2034   1.083       .  S
C2030      C2031   1.407       .  A
C2031      C2032   1.403       .  A
C2031      H2035   1.083       .  S
C2032      H2036   1.083       .  S
C2037      C2038   1.403       .  A
C2037      C2042   1.390       .  A
C2037      H2047   1.083       .  S
C2038      C2043   1.482       .  S
C2038      C2039   1.406       .  A
C2039      C2040   1.406       .  A
C2039      H2044   1.083       .  S
C2040      C2041   1.408       .  A
C2040      H2045   1.083       .  S
C2041      C2042   1.403       .  A
C2042      H2046   1.083       .  S
C2043      C2048   1.402       .  A
C2043      C2052   1.407       .  A
C2048      C2049   1.391       .  A
C2048      H2053   1.084       .  S
C2049      C2050   1.405       .  A
C2049      H2054   1.083       .  S
C2050      C2051   1.407       .  A
C2051      C2052   1.407       .  A
C2051      H2055   1.083       .  S
C2052      H2056   1.083       .  S
C2057      C2058   1.411       .  A
C2057      C2062   1.400       .  A
C2057      H2067   1.081       .  S
C2058      C2063   1.501       .  S
C2058      C2059   1.412   1_655  A
C2059      C2060   1.399       .  A
C2059      H2064   1.081       .  S
C2060      C2061   1.400   1_455  A
C2060      H2065   1.083       .  S
C2061      C2062   1.402       .  A
C2062      H2066   1.083       .  S
C2063      C2068   1.412       .  A
C2063      C2072   1.411   1_655  A
C2068      C2069   1.401       .  A
C2068      H2073   1.081       .  S
C2069      C2070   1.401       .  A
C2069      H2074   1.083       .  S
C2070      C2071   1.401   1_655  A
C2071      C2072   1.398       .  A
C2071      H2075   1.083       .  S
C2072      H2076   1.081       .  S
C2077      C2078   1.407       .  A
C2077      C2082   1.406       .  A
C2077      H2087   1.083       .  S
C2078      C2083   1.485       .  S
C2078      C2079   1.403       .  A
C2079      C2080   1.393       .  A
C2079      H2084   1.083       .  S
C2080      C2081   1.405       .  A
C2080      H2085   1.084       .  S
C2081      C2082   1.407       .  A
C2082      H2086   1.083       .  S
C2083      C2088   1.406       .  A
C2083      C2092   1.404       .  A
C2088      C2089   1.406       .  A
C2088      H2093   1.083       .  S
C2089      C2090   1.409       .  A
C2089      H2094   1.083       .  S
C2090      C2091   1.405       .  A
C2091      C2092   1.392       .  A
C2091      H2095   1.083       .  S
C2092      H2096   1.084       .  S
C2097      C2098   1.404   1_655  A
C2097      C2102   1.400       .  A
C2097      H2107   1.083       .  S
C2098      C2103   1.480       .  S
C2098      C2099   1.403       .  A
C2099      C2100   1.397       .  A
C2099      H2104   1.083       .  S
C2100      C2101   1.406   1_455  A
C2100      H2105   1.083       .  S
C2101      C2102   1.407       .  A
C2102      H2106   1.083       .  S
C2103      C2108   1.405   1_455  A
C2103      C2112   1.403       .  A
C2108      C2109   1.400       .  A
C2108      H2113   1.083       .  S
C2109      C2110   1.406   1_655  A
C2109      H2114   1.083       .  S
C2110      C2111   1.406       .  A
C2111      C2112   1.396       .  A
C2111      H2115   1.083       .  S
C2112      H2116   1.083       .  S
C2117      C2118   1.408       .  A
C2117      C2122   1.393       .  A
C2117      H2127   1.081       .  S
C2118      C2123   1.494       .  S
C2118      C2119   1.409       .  A
C2119      C2120   1.403       .  A
C2119      H2124   1.083       .  S
C2120      C2121   1.408       .  A
C2120      H2125   1.083       .  S
C2121      C2122   1.403       .  A
C2122      H2126   1.083       .  S
C2123      C2128   1.409       .  A
C2123      C2132   1.411       .  A
C2128      C2129   1.395       .  A
C2128      H2133   1.082       .  S
C2129      C2130   1.400   1_554  A
C2129      H2134   1.083   1_455  S
C2130      C2131   1.401       .  A
C2131      C2132   1.401   1_556  A
C2131      H2135   1.084       .  S
C2132      H2136   1.082       .  S
C2137      C2138   1.404   1_545  A
C2137      C2142   1.400       .  A
C2137      H2147   1.083       .  S
C2138      C2143   1.480       .  S
C2138      C2139   1.403       .  A
C2139      C2140   1.397       .  A
C2139      H2144   1.083       .  S
C2140      C2141   1.406       .  A
C2140      H2145   1.083       .  S
C2141      C2142   1.407   1_565  A
C2142      H2146   1.083       .  S
C2143      C2148   1.404       .  A
C2143      C2152   1.403   1_565  A
C2148      C2149   1.400       .  A
C2148      H2153   1.083       .  S
C2149      C2150   1.407       .  A
C2149      H2154   1.083       .  S
C2150      C2151   1.406   1_565  A
C2151      C2152   1.397       .  A
C2151      H2155   1.083       .  S
C2152      H2156   1.083       .  S
C2157      C2158   1.411       .  A
C2157      C2162   1.402       .  A
C2157      H2167   1.082       .  S
C2158      C2163   1.495       .  S
C2158      C2159   1.408       .  A
C2159      C2160   1.394       .  A
C2159      H2164   1.081       .  S
C2160      C2161   1.401       .  A
C2160      H2165   1.084       .  S
C2161      C2162   1.402       .  A
C2162      H2166   1.083       .  S
C2163      C2168   1.409       .  A
C2163      C2172   1.408       .  A
C2168      C2169   1.402       .  A
C2168      H2173   1.082       .  S
C2169      C2170   1.406       .  A
C2169      H2174   1.083       .  S
C2170      C2171   1.403       .  A
C2171      C2172   1.395       .  A
C2171      H2175   1.083       .  S
C2172      H2176   1.082       .  S
C2177      C2178   1.408       .  A
C2177      C2182   1.405       .  A
C2177      H2187   1.083       .  S
C2178      C2183   1.487       .  S
C2178      C2179   1.404       .  A
C2179      C2180   1.392       .  A
C2179      H2184   1.083       .  S
C2180      C2181   1.405       .  A
C2180      H2185   1.083       .  S
C2181      C2182   1.406       .  A
C2182      H2186   1.083       .  S
C2183      C2188   1.407       .  A
C2183      C2192   1.405       .  A
C2188      C2189   1.405       .  A
C2188      H2193   1.083       .  S
C2189      C2190   1.407       .  A
C2189      H2194   1.083       .  S
C2190      C2191   1.404       .  A
C2191      C2192   1.393       .  A
C2191      H2195   1.083       .  S
C2192      H2196   1.083       .  S
C2197      C2198   1.404       .  A
C2197      C2202   1.400       .  A
C2197      H2207   1.083       .  S
C2198      C2203   1.485       .  S
C2198      C2199   1.404   1_554  A
C2199      C2200   1.400       .  A
C2199      H2204   1.083       .  S
C2200      C2201   1.408   1_556  A
C2200      H2205   1.083       .  S
C2201      C2202   1.408       .  A
C2202      H2206   1.083       .  S
C2203      C2208   1.405       .  A
C2203      C2212   1.404   1_554  A
C2208      C2209   1.401       .  A
C2208      H2213   1.083       .  S
C2209      C2210   1.407       .  A
C2209      H2214   1.083       .  S
C2210      C2211   1.407   1_554  A
C2211      C2212   1.400       .  A
C2211      H2215   1.083       .  S
C2212      H2216   1.083       .  S
C2217      C2218   1.407       .  A
C2217      C2222   1.393       .  A
C2217      H2227   1.084       .  S
C2218      C2223   1.496       .  S
C2218      C2219   1.411   1_545  A
C2219      C2220   1.405       .  A
C2219      H2224   1.080       .  S
C2220      C2221   1.404       .  A
C2220      H2225   1.084       .  S
C2221      C2222   1.403   1_565  A
C2222      H2226   1.082       .  S
C2223      C2228   1.408       .  A
C2223      C2232   1.410       .  A
C2228      C2229   1.393       .  A
C2228      H2233   1.080       .  S
C2229      C2230   1.402       .  A
C2229      H2234   1.085       .  S
C2230      C2231   1.406       .  A
C2231      C2232   1.405       .  A
C2231      H2235   1.081       .  S
C2232      H2236   1.084       .  S
C2237      C2238   1.406   1_556  A
C2237      C2242   1.401       .  A
C2237      H2247   1.083       .  S
C2238      C2243   1.486       .  S
C2238      C2239   1.405       .  A
C2239      C2240   1.399       .  A
C2239      H2244   1.083       .  S
C2240      C2241   1.406       .  A
C2240      H2245   1.083       .  S
C2241      C2242   1.405   1_554  A
C2242      H2246   1.083       .  S
C2243      C2248   1.405       .  A
C2243      C2252   1.404   1_554  A
C2248      C2249   1.402       .  A
C2248      H2253   1.083       .  S
C2249      C2250   1.408       .  A
C2249      H2254   1.083       .  S
C2250      C2251   1.408   1_554  A
C2251      C2252   1.400       .  A
C2251      H2255   1.083       .  S
C2252      H2256   1.083       .  S
C2257      C2258   1.404       .  A
C2257      C2262   1.405       .  A
C2257      H2267   1.083       .  S
C2258      C2263   1.477       .  S
C2258      C2259   1.401       .  A
C2259      C2260   1.392       .  A
C2259      H2264   1.084       .  S
C2260      C2261   1.406       .  A
C2260      H2265   1.083       .  S
C2261      C2262   1.409       .  A
C2262      H2266   1.083       .  S
C2263      C2268   1.405       .  A
C2263      C2272   1.399       .  A
C2268      C2269   1.407       .  A
C2268      H2273   1.083       .  S
C2269      C2270   1.410       .  A
C2269      H2274   1.083       .  S
C2270      C2271   1.407       .  A
C2271      C2272   1.389       .  A
C2271      H2275   1.083       .  S
C2272      H2276   1.084       .  S
C2277      C2278   1.403       .  A
C2277      C2282   1.399       .  A
C2277      H2287   1.083       .  S
C2278      C2283   1.486       .  S
C2278      C2279   1.405   1_545  A
C2279      C2280   1.404       .  A
C2279      H2284   1.083       .  S
C2280      C2281   1.408   1_565  A
C2280      H2285   1.083       .  S
C2281      C2282   1.408       .  A
C2282      H2286   1.083       .  S
C2283      C2288   1.405       .  A
C2283      C2292   1.404   1_545  A
C2288      C2289   1.402       .  A
C2288      H2293   1.083       .  S
C2289      C2290   1.408       .  A
C2289      H2294   1.083       .  S
C2290      C2291   1.408   1_545  A
C2291      C2292   1.402       .  A
C2291      H2295   1.083       .  S
C2292      H2296   1.083       .  S
C2297      C2298   1.407   1_655  A
C2297      C2302   1.408       .  A
C2297      H2307   1.083       .  S
C2298      C2303   1.482       .  S
C2298      C2299   1.400       .  A
C2299      C2300   1.391       .  A
C2299      H2304   1.084       .  S
C2300      C2301   1.408   1_455  A
C2300      H2305   1.083       .  S
C2301      C2302   1.408       .  A
C2302      H2306   1.083       .  S
C2303      C2308   1.405       .  A
C2303      C2312   1.403       .  A
C2308      C2309   1.406       .  A
C2308      H2313   1.083       .  S
C2309      C2310   1.408       .  A
C2309      H2314   1.083       .  S
C2310      C2311   1.406       .  A
C2311      C2312   1.393       .  A
C2311      H2315   1.083       .  S
C2312      H2316   1.083       .  S
C2317      C2318   1.408   1_655  A
C2317      C2322   1.405       .  A
C2317      H2327   1.083       .  S
C2318      C2323   1.486       .  S
C2318      C2319   1.403       .  A
C2319      C2320   1.392       .  A
C2319      H2324   1.083       .  S
C2320      C2321   1.407   1_455  A
C2320      H2325   1.083       .  S
C2321      C2322   1.407       .  A
C2322      H2326   1.083       .  S
C2323      C2328   1.407       .  A
C2323      C2332   1.404       .  A
C2328      C2329   1.396       .  A
C2328      H2333   1.083       .  S
C2329      C2330   1.404       .  A
C2329      H2334   1.083       .  S
C2330      C2331   1.409       .  A
C2331      C2332   1.400       .  A
C2331      H2335   1.083       .  S
C2332      H2336   1.083       .  S
C2337      C2338   1.403       .  A
C2337      C2342   1.399       .  A
C2337      H2347   1.083       .  S
C2338      C2343   1.484       .  S
C2338      C2339   1.405   1_565  A
C2339      C2340   1.402       .  A
C2339      H2344   1.083       .  S
C2340      C2341   1.408   1_545  A
C2340      H2345   1.083       .  S
C2341      C2342   1.407       .  A
C2342      H2346   1.083       .  S
C2343      C2348   1.405       .  A
C2343      C2352   1.403   1_565  A
C2348      C2349   1.401       .  A
C2348      H2353   1.083       .  S
C2349      C2350   1.406       .  A
C2349      H2354   1.083       .  S
C2350      C2351   1.408   1_565  A
C2351      C2352   1.400       .  A
C2351      H2355   1.083       .  S
C2352      H2356   1.083       .  S
C2357      C2358   1.407       .  A
C2357      C2362   1.394       .  A
C2357      H2367   1.082       .  S
C2358      C2363   1.490       .  S
C2358      C2359   1.410       .  A
C2359      C2360   1.403       .  A
C2359      H2364   1.083       .  S
C2360      C2361   1.402       .  A
C2360      H2365   1.083       .  S
C2361      C2362   1.401       .  A
C2362      H2366   1.084       .  S
C2363      C2368   1.407       .  A
C2363      C2372   1.407       .  A
C2368      C2369   1.394       .  A
C2368      H2373   1.083       .  S
C2369      C2370   1.404       .  A
C2369      H2374   1.083       .  S
C2370      C2371   1.407       .  A
C2371      C2372   1.402       .  A
C2371      H2375   1.083       .  S
C2372      H2376   1.082       .  S
C2377      C2378   1.406       .  A
C2377      C2382   1.402       .  A
C2377      H2387   1.083       .  S
C2378      C2383   1.490       .  S
C2378      C2379   1.406       .  A
C2379      C2380   1.400       .  A
C2379      H2384   1.083       .  S
C2380      C2381   1.407       .  A
C2380      H2385   1.083       .  S
C2381      C2382   1.408       .  A
C2382      H2386   1.083       .  S
C2383      C2388   1.407       .  A
C2383      C2392   1.406       .  A
C2388      C2389   1.402       .  A
C2388      H2393   1.083       .  S
C2389      C2390   1.406       .  A
C2389      H2394   1.083       .  S
C2390      C2391   1.406       .  A
C2391      C2392   1.401       .  A
C2391      H2395   1.083       .  S
C2392      H2396   1.083       .  S
C2397      C2398   1.405       .  A
C2397      C2402   1.399       .  A
C2397      H2407   1.083       .  S
C2398      C2403   1.491       .  S
C2398      C2399   1.407       .  A
C2399      C2400   1.404       .  A
C2399      H2404   1.083       .  S
C2400      C2401   1.407       .  A
C2400      H2405   1.083       .  S
C2401      C2402   1.407       .  A
C2402      H2406   1.083       .  S
C2403      C2408   1.407       .  A
C2403      C2412   1.406       .  A
C2408      C2409   1.401       .  A
C2408      H2413   1.083       .  S
C2409      C2410   1.406       .  A
C2409      H2414   1.083       .  S
C2410      C2411   1.407       .  A
C2411      C2412   1.402       .  A
C2411      H2415   1.083       .  S
C2412      H2416   1.083       .  S
C2417      C2418   1.411   1_565  A
C2417      C2422   1.403       .  A
C2417      H2427   1.082       .  S
C2418      C2423   1.496       .  S
C2418      C2419   1.408       .  A
C2419      C2420   1.395       .  A
C2419      H2424   1.082       .  S
C2420      C2421   1.402   1_545  A
C2420      H2425   1.084   1_556  S
C2421      C2422   1.403       .  A
C2422      H2426   1.083       .  S
C2423      C2428   1.409       .  A
C2423      C2432   1.409       .  A
C2428      C2429   1.402       .  A
C2428      H2433   1.082       .  S
C2429      C2430   1.406       .  A
C2429      H2434   1.083       .  S
C2430      C2431   1.403       .  A
C2431      C2432   1.396       .  A
C2431      H2435   1.083       .  S
C2432      H2436   1.082       .  S
C2437      C2438   1.406       .  A
C2437      C2442   1.409       .  A
C2437      H2447   1.083       .  S
C2438      C2443   1.483       .  S
C2438      C2439   1.401       .  A
C2439      C2440   1.391       .  A
C2439      H2444   1.084       .  S
C2440      C2441   1.407       .  A
C2440      H2445   1.083       .  S
C2441      C2442   1.410       .  A
C2442      H2446   1.083       .  S
C2443      C2448   1.406       .  A
C2443      C2452   1.401       .  A
C2448      C2449   1.408       .  A
C2448      H2453   1.083       .  S
C2449      C2450   1.409       .  A
C2449      H2454   1.083       .  S
C2450      C2451   1.407       .  A
C2451      C2452   1.392       .  A
C2451      H2455   1.083       .  S
C2452      H2456   1.084       .  S
C2457      C2458   1.408       .  A
C2457      C2462   1.398       .  A
C2457      H2467   1.082       .  S
C2458      C2463   1.493       .  S
C2458      C2459   1.407       .  A
C2459      C2460   1.402       .  A
C2459      H2464   1.083       .  S
C2460      C2461   1.407       .  A
C2460      H2465   1.082       .  S
C2461      C2462   1.405       .  A
C2462      H2466   1.084       .  S
C2463      C2468   1.406       .  A
C2463      C2472   1.411       .  A
C2468      C2469   1.396       .  A
C2468      H2473   1.083       .  S
C2469      C2470   1.404   1_556  A
C2469      H2474   1.083       .  S
C2470      C2471   1.403       .  A
C2471      C2472   1.403   1_554  A
C2471      H2475   1.083       .  S
C2472      H2476   1.082       .  S
C2477      C2478   1.408       .  A
C2477      C2482   1.409       .  A
C2477      H2487   1.083       .  S
C2478      C2483   1.489       .  S
C2478      C2479   1.404       .  A
C2479      C2480   1.392       .  A
C2479      H2484   1.083       .  S
C2480      C2481   1.405       .  A
C2480      H2485   1.083       .  S
C2481      C2482   1.409       .  A
C2482      H2486   1.082       .  S
C2483      C2488   1.408       .  A
C2483      C2492   1.404       .  A
C2488      C2489   1.407       .  A
C2488      H2493   1.082       .  S
C2489      C2490   1.407       .  A
C2489      H2494   1.083       .  S
C2490      C2491   1.405       .  A
C2491      C2492   1.394       .  A
C2491      H2495   1.083       .  S
C2492      H2496   1.084       .  S
C2497      C2498   1.409       .  A
C2497      C2502   1.400       .  A
C2497      H2507   1.081       .  S
C2498      C2503   1.500       .  S
C2498      C2499   1.410       .  A
C2499      C2500   1.399       .  A
C2499      H2504   1.082       .  S
C2500      C2501   1.405       .  A
C2500      H2505   1.083       .  S
C2501      C2502   1.405       .  A
C2502      H2506   1.083       .  S
C2503      C2508   1.413       .  A
C2503      C2512   1.409       .  A
C2508      C2509   1.402       .  A
C2508      H2513   1.082       .  S
C2509      C2510   1.400       .  A
C2509      H2514   1.083       .  S
C2510      C2511   1.402       .  A
C2511      C2512   1.398       .  A
C2511      H2515   1.084   1_545  S
C2512      H2516   1.081       .  S
C2517      C2518   1.402       .  A
C2517      C2522   1.391       .  A
C2517      H2527   1.083       .  S
C2518      C2523   1.482       .  S
C2518      C2519   1.406       .  A
C2519      C2520   1.406       .  A
C2519      H2524   1.083       .  S
C2520      C2521   1.409       .  A
C2520      H2525   1.082       .  S
C2521      C2522   1.406       .  A
C2522      H2526   1.083       .  S
C2523      C2528   1.401       .  A
C2523      C2532   1.407       .  A
C2528      C2529   1.389       .  A
C2528      H2533   1.084       .  S
C2529      C2530   1.406       .  A
C2529      H2534   1.083       .  S
C2530      C2531   1.408       .  A
C2531      C2532   1.407       .  A
C2531      H2535   1.083       .  S
C2532      H2536   1.082       .  S
C2537      C2538   1.409       .  A
C2537      C2542   1.395       .  A
C2537      H2547   1.081       .  S
C2538      C2543   1.497       .  S
C2538      C2539   1.409       .  A
C2539      C2540   1.402       .  A
C2539      H2544   1.082       .  S
C2540      C2541   1.407       .  A
C2540      H2545   1.083       .  S
C2541      C2542   1.403       .  A
C2542      H2546   1.083       .  S
C2543      C2548   1.409       .  A
C2543      C2552   1.412       .  A
C2548      C2549   1.396       .  A
C2548      H2553   1.082       .  S
C2549      C2550   1.400       .  A
C2549      H2554   1.083       .  S
C2550      C2551   1.401       .  A
C2551      C2552   1.402       .  A
C2551      H2555   1.083       .  S
C2552      H2556   1.082       .  S
C2557      C2558   1.404       .  A
C2557      C2562   1.391       .  A
C2557      H2567   1.083       .  S
C2558      C2563   1.490       .  S
C2558      C2559   1.408       .  A
C2559      C2560   1.407       .  A
C2559      H2564   1.082       .  S
C2560      C2561   1.408       .  A
C2560      H2565   1.083       .  S
C2561      C2562   1.406       .  A
C2562      H2566   1.083       .  S
C2563      C2568   1.403       .  A
C2563      C2572   1.409       .  A
C2568      C2569   1.390       .  A
C2568      H2573   1.083       .  S
C2569      C2570   1.407       .  A
C2569      H2574   1.083       .  S
C2570      C2571   1.408   1_556  A
C2571      C2572   1.408   1_554  A
C2571      H2575   1.082       .  S
C2572      H2576   1.083       .  S
C2577      C2578   1.409       .  A
C2577      C2582   1.404       .  A
C2577      H2587   1.082       .  S
C2578      C2583   1.495       .  S
C2578      C2579   1.408       .  A
C2579      C2580   1.396       .  A
C2579      H2584   1.083       .  S
C2580      C2581   1.403       .  A
C2580      H2585   1.083       .  S
C2581      C2582   1.406       .  A
C2582      H2586   1.083       .  S
C2583      C2588   1.411       .  A
C2583      C2592   1.407       .  A
C2588      C2589   1.405       .  A
C2588      H2593   1.083       .  S
C2589      C2590   1.405       .  A
C2589      H2594   1.083       .  S
C2590      C2591   1.403       .  A
C2591      C2592   1.394       .  A
C2591      H2595   1.084       .  S
C2592      H2596   1.082       .  S
C2597      C2598   1.408       .  A
C2597      C2602   1.408       .  A
C2597      H2607   1.083       .  S
C2598      C2603   1.488       .  S
C2598      C2599   1.404       .  A
C2599      C2600   1.392       .  A
C2599      H2604   1.083       .  S
C2600      C2601   1.403       .  A
C2600      H2605   1.084       .  S
C2601      C2602   1.408       .  A
C2602      H2606   1.083       .  S
C2603      C2608   1.409       .  A
C2603      C2612   1.403       .  A
C2608      C2609   1.408       .  A
C2608      H2613   1.083       .  S
C2609      C2610   1.406       .  A
C2609      H2614   1.083       .  S
C2610      C2611   1.405       .  A
C2611      C2612   1.392       .  A
C2611      H2615   1.083       .  S
C2612      H2616   1.084       .  S
C2617      C2618   1.404       .  A
C2617      C2622   1.396       .  A
C2617      H2627   1.083       .  S
C2618      C2623   1.485       .  S
C2618      C2619   1.406       .  A
C2619      C2620   1.402       .  A
C2619      H2624   1.083       .  S
C2620      C2621   1.406       .  A
C2620      H2625   1.083       .  S
C2621      C2622   1.408       .  A
C2622      H2626   1.083       .  S
C2623      C2628   1.404       .  A
C2623      C2632   1.405       .  A
C2628      C2629   1.399       .  A
C2628      H2633   1.083       .  S
C2629      C2630   1.407       .  A
C2629      H2634   1.083       .  S
C2630      C2631   1.407       .  A
C2631      C2632   1.398       .  A
C2631      H2635   1.083       .  S
C2632      H2636   1.083       .  S
C2637      C2638   1.404       .  A
C2637      C2642   1.401       .  A
C2637      H2647   1.083       .  S
C2638      C2643   1.481       .  S
C2638      C2639   1.403       .  A
C2639      C2640   1.398       .  A
C2639      H2644   1.083       .  S
C2640      C2641   1.406       .  A
C2640      H2645   1.083       .  S
C2641      C2642   1.407       .  A
C2642      H2646   1.083       .  S
C2643      C2648   1.404       .  A
C2643      C2652   1.402       .  A
C2648      C2649   1.402       .  A
C2648      H2653   1.083       .  S
C2649      C2650   1.407       .  A
C2649      H2654   1.083       .  S
C2650      C2651   1.408       .  A
C2651      C2652   1.397       .  A
C2651      H2655   1.083       .  S
C2652      H2656   1.083       .  S
C2657      C2658   1.407       .  A
C2657      C2662   1.402       .  A
C2657      H2667   1.083       .  S
C2658      C2663   1.488       .  S
C2658      C2659   1.405   1_556  A
C2659      C2660   1.399       .  A
C2659      H2664   1.083       .  S
C2660      C2661   1.405       .  A
C2660      H2665   1.083       .  S
C2661      C2662   1.406   1_554  A
C2662      H2666   1.083       .  S
C2663      C2668   1.405       .  A
C2663      C2672   1.406   1_556  A
C2668      C2669   1.400       .  A
C2668      H2673   1.083       .  S
C2669      C2670   1.408       .  A
C2669      H2674   1.083       .  S
C2670      C2671   1.407   1_556  A
C2671      C2672   1.401       .  A
C2671      H2675   1.083       .  S
C2672      H2676   1.083       .  S
C2677      C2678   1.401       .  A
C2677      C2682   1.390       .  A
C2677      H2687   1.083       .  S
C2678      C2683   1.483       .  S
C2678      C2679   1.407       .  A
C2679      C2680   1.408       .  A
C2679      H2684   1.083       .  S
C2680      C2681   1.409       .  A
C2680      H2685   1.082       .  S
C2681      C2682   1.407       .  A
C2682      H2686   1.083       .  S
C2683      C2688   1.402       .  A
C2683      C2692   1.406       .  A
C2688      C2689   1.392       .  A
C2688      H2693   1.084       .  S
C2689      C2690   1.407       .  A
C2689      H2694   1.083       .  S
C2690      C2691   1.409       .  A
C2691      C2692   1.406       .  A
C2691      H2695   1.083       .  S
C2692      H2696   1.083       .  S
C2697      C2698   1.409       .  A
C2697      C2702   1.397       .  A
C2697      H2707   1.081       .  S
C2698      C2703   1.497       .  S
C2698      C2699   1.409       .  A
C2699      C2700   1.400       .  A
C2699      H2704   1.082       .  S
C2700      C2701   1.405       .  A
C2700      H2705   1.083       .  S
C2701      C2702   1.404       .  A
C2702      H2706   1.083       .  S
C2703      C2708   1.409       .  A
C2703      C2712   1.411       .  A
C2708      C2709   1.398       .  A
C2708      H2713   1.082       .  S
C2709      C2710   1.403   1_554  A
C2709      H2714   1.083   1_655  S
C2710      C2711   1.401       .  A
C2711      C2712   1.400   1_556  A
C2711      H2715   1.083       .  S
C2712      H2716   1.081       .  S
C2717      C2718   1.402       .  A
C2717      C2722   1.392       .  A
C2717      H2727   1.084       .  S
C2718      C2723   1.481       .  S
C2718      C2719   1.406       .  A
C2719      C2720   1.407       .  A
C2719      H2724   1.083       .  S
C2720      C2721   1.409       .  A
C2720      H2725   1.083       .  S
C2721      C2722   1.406       .  A
C2722      H2726   1.083       .  S
C2723      C2728   1.402       .  A
C2723      C2732   1.406       .  A
C2728      C2729   1.394       .  A
C2728      H2733   1.083       .  S
C2729      C2730   1.405       .  A
C2729      H2734   1.084       .  S
C2730      C2731   1.407       .  A
C2731      C2732   1.405       .  A
C2731      H2735   1.083       .  S
C2732      H2736   1.083       .  S
C2737      C2738   1.409       .  A
C2737      C2742   1.396       .  A
C2737      H2747   1.082       .  S
C2738      C2743   1.492       .  S
C2738      C2739   1.407       .  A
C2739      C2740   1.399       .  A
C2739      H2744   1.082       .  S
C2740      C2741   1.406       .  A
C2740      H2745   1.083       .  S
C2741      C2742   1.403       .  A
C2742      H2746   1.083       .  S
C2743      C2748   1.407       .  A
C2743      C2752   1.411       .  A
C2748      C2749   1.394       .  A
C2748      H2753   1.082       .  S
C2749      C2750   1.402   1_655  A
C2749      H2754   1.084       .  S
C2750      C2751   1.401       .  A
C2751      C2752   1.401   1_455  A
C2751      H2755   1.083       .  S
C2752      H2756   1.082   1_655  S
C2757      C2758   1.406       .  A
C2757      C2762   1.405       .  A
C2757      H2767   1.083       .  S
C2758      C2763   1.482       .  S
C2758      C2759   1.402       .  A
C2759      C2760   1.393       .  A
C2759      H2764   1.084       .  S
C2760      C2761   1.406       .  A
C2760      H2765   1.083       .  S
C2761      C2762   1.407       .  A
C2762      H2766   1.083       .  S
C2763      C2768   1.405       .  A
C2763      C2772   1.402       .  A
C2768      C2769   1.405       .  A
C2768      H2773   1.083       .  S
C2769      C2770   1.409       .  A
C2769      H2774   1.083       .  S
C2770      C2771   1.406       .  A
C2771      C2772   1.392       .  A
C2771      H2775   1.083       .  S
C2772      H2776   1.083       .  S
C2777      C2778   1.409       .  A
C2777      C2782   1.405       .  A
C2777      H2787   1.082       .  S
C2778      C2783   1.496       .  S
C2778      C2779   1.408       .  A
C2779      C2780   1.394       .  A
C2779      H2784   1.082       .  S
C2780      C2781   1.403       .  A
C2780      H2785   1.083       .  S
C2781      C2782   1.408       .  A
C2782      H2786   1.083       .  S
C2783      C2788   1.412       .  A
C2783      C2792   1.407       .  A
C2788      C2789   1.406       .  A
C2788      H2793   1.082       .  S
C2789      C2790   1.403       .  A
C2789      H2794   1.083       .  S
C2790      C2791   1.401       .  A
C2791      C2792   1.393       .  A
C2791      H2795   1.084   1_554  S
C2792      H2796   1.082       .  S
C2797      C2798   1.407       .  A
C2797      C2802   1.404       .  A
C2797      H2807   1.083       .  S
C2798      C2803   1.482       .  S
C2798      C2799   1.403       .  A
C2799      C2800   1.391       .  A
C2799      H2804   1.083       .  S
C2800      C2801   1.404       .  A
C2800      H2805   1.083       .  S
C2801      C2802   1.406       .  A
C2802      H2806   1.083       .  S
C2803      C2808   1.405       .  A
C2803      C2812   1.404       .  A
C2808      C2809   1.404       .  A
C2808      H2813   1.083       .  S
C2809      C2810   1.408       .  A
C2809      H2814   1.083       .  S
C2810      C2811   1.403       .  A
C2811      C2812   1.391       .  A
C2811      H2815   1.083       .  S
C2812      H2816   1.083       .  S
C2817      C2818   1.410       .  A
C2817      C2822   1.397       .  A
C2817      H2827   1.081       .  S
C2818      C2823   1.498       .  S
C2818      C2819   1.408       .  A
C2819      C2820   1.402       .  A
C2819      H2824   1.082       .  S
C2820      C2821   1.406       .  A
C2820      H2825   1.083       .  S
C2821      C2822   1.404       .  A
C2822      H2826   1.084       .  S
C2823      C2828   1.407       .  A
C2823      C2832   1.412       .  A
C2828      C2829   1.396       .  A
C2828      H2833   1.082       .  S
C2829      C2830   1.403       .  A
C2829      H2834   1.083       .  S
C2830      C2831   1.401       .  A
C2831      C2832   1.404       .  A
C2831      H2835   1.083       .  S
C2832      H2836   1.081       .  S
C2837      C2838   1.405       .  A
C2837      C2842   1.404       .  A
C2837      H2847   1.083       .  S
C2838      C2843   1.473       .  S
C2838      C2839   1.400       .  A
C2839      C2840   1.391       .  A
C2839      H2844   1.084       .  S
C2840      C2841   1.405       .  A
C2840      H2845   1.083       .  S
C2841      C2842   1.406       .  A
C2842      H2846   1.083       .  S
C2843      C2848   1.403       .  A
C2843      C2852   1.400       .  A
C2848      C2849   1.405       .  A
C2848      H2853   1.083       .  S
C2849      C2850   1.410       .  A
C2849      H2854   1.083       .  S
C2850      C2851   1.406       .  A
C2851      C2852   1.391       .  A
C2851      H2855   1.083       .  S
C2852      H2856   1.084       .  S
C2857      C2858   1.404       .  A
C2857      C2862   1.390       .  A
C2857      H2867   1.083       .  S
C2858      C2863   1.483       .  S
C2858      C2859   1.406       .  A
C2859      C2860   1.405       .  A
C2859      H2864   1.083       .  S
C2860      C2861   1.407       .  A
C2860      H2865   1.083       .  S
C2861      C2862   1.402       .  A
C2862      H2866   1.084       .  S
C2863      C2868   1.402       .  A
C2863      C2872   1.408       .  A
C2868      C2869   1.389       .  A
C2868      H2873   1.084       .  S
C2869      C2870   1.404   1_655  A
C2869      H2874   1.083       .  S
C2870      C2871   1.405       .  A
C2871      C2872   1.406   1_455  A
C2871      H2875   1.083       .  S
C2872      H2876   1.083       .  S
C2877      C2878   1.406       .  A
C2877      C2882   1.392       .  A
C2877      H2887   1.083       .  S
C2878      C2883   1.491       .  S
C2878      C2879   1.408       .  A
C2879      C2880   1.406       .  A
C2879      H2884   1.082       .  S
C2880      C2881   1.406       .  A
C2880      H2885   1.083       .  S
C2881      C2882   1.403       .  A
C2882      H2886   1.083       .  S
C2883      C2888   1.404       .  A
C2883      C2892   1.411       .  A
C2888      C2889   1.392       .  A
C2888      H2893   1.083       .  S
C2889      C2890   1.404       .  A
C2889      H2894   1.084       .  S
C2890      C2891   1.404       .  A
C2891      C2892   1.407       .  A
C2891      H2895   1.083       .  S
C2892      H2896   1.083       .  S
C2897      C2898   1.407       .  A
C2897      C2902   1.396       .  A
C2897      H2907   1.082       .  S
C2898      C2903   1.492       .  S
C2898      C2899   1.410       .  A
C2899      C2900   1.401       .  A
C2899      H2904   1.082       .  S
C2900      C2901   1.403       .  A
C2900      H2905   1.083       .  S
C2901      C2902   1.403       .  A
C2902      H2906   1.083       .  S
C2903      C2908   1.408       .  A
C2903      C2912   1.409       .  A
C2908      C2909   1.394       .  A
C2908      H2913   1.082       .  S
C2909      C2910   1.402       .  A
C2909      H2914   1.083       .  S
C2910      C2911   1.405       .  A
C2911      C2912   1.401       .  A
C2911      H2915   1.083       .  S
C2912      H2916   1.082       .  S
C2917      C2918   1.402       .  A
C2917      C2922   1.392       .  A
C2917      H2927   1.083       .  S
C2918      C2923   1.487       .  S
C2918      C2919   1.409       .  A
C2919      C2920   1.405       .  A
C2919      H2924   1.083       .  S
C2920      C2921   1.406       .  A
C2920      H2925   1.083       .  S
C2921      C2922   1.409       .  A
C2922      H2926   1.083       .  S
C2923      C2928   1.404       .  A
C2923      C2932   1.407       .  A
C2928      C2929   1.399       .  A
C2928      H2933   1.083       .  S
C2929      C2930   1.408       .  A
C2929      H2934   1.083       .  S
C2930      C2931   1.405       .  A
C2931      C2932   1.398       .  A
C2931      H2935   1.083       .  S
C2932      H2936   1.083       .  S
C2937      C2938   1.406       .  A
C2937      C2942   1.406       .  A
C2937      H2947   1.083       .  S
C2938      C2943   1.483       .  S
C2938      C2939   1.402       .  A
C2939      C2940   1.392       .  A
C2939      H2944   1.084       .  S
C2940      C2941   1.406       .  A
C2940      H2945   1.082       .  S
C2941      C2942   1.409       .  A
C2942      H2946   1.083       .  S
C2943      C2948   1.406       .  A
C2943      C2952   1.402       .  A
C2948      C2949   1.406       .  A
C2948      H2953   1.083       .  S
C2949      C2950   1.408       .  A
C2949      H2954   1.082       .  S
C2950      C2951   1.407       .  A
C2951      C2952   1.391       .  A
C2951      H2955   1.083       .  S
C2952      H2956   1.083       .  S
C2957      C2958   1.409       .  A
C2957      C2962   1.395       .  A
C2957      H2967   1.082       .  S
C2958      C2963   1.496       .  S
C2958      C2959   1.409       .  A
C2959      C2960   1.403       .  A
C2959      H2964   1.082       .  S
C2960      C2961   1.408       .  A
C2960      H2965   1.083       .  S
C2961      C2962   1.403       .  A
C2962      H2966   1.083       .  S
C2963      C2968   1.409       .  A
C2963      C2972   1.411       .  A
C2968      C2969   1.396       .  A
C2968      H2973   1.082       .  S
C2969      C2970   1.400       .  A
C2969      H2974   1.083       .  S
C2970      C2971   1.401       .  A
C2971      C2972   1.403       .  A
C2971      H2975   1.083       .  S
C2972      H2976   1.082       .  S
C2977      C2978   1.406       .  A
C2977      C2982   1.394       .  A
C2977      H2987   1.083       .  S
C2978      C2983   1.489       .  S
C2978      C2979   1.406       .  A
C2979      C2980   1.406       .  A
C2979      H2984   1.083       .  S
C2980      C2981   1.409       .  A
C2980      H2985   1.083       .  S
C2981      C2982   1.404       .  A
C2982      H2986   1.083       .  S
C2983      C2988   1.403       .  A
C2983      C2992   1.409       .  A
C2988      C2989   1.392       .  A
C2988      H2993   1.083       .  S
C2989      C2990   1.406       .  A
C2989      H2994   1.083       .  S
C2990      C2991   1.406       .  A
C2991      C2992   1.407       .  A
C2991      H2995   1.083       .  S
C2992      H2996   1.083       .  S
C2997      C2998   1.409       .  A
C2997      C3002   1.396       .  A
C2997      H3007   1.082       .  S
C2998      C3003   1.499       .  S
C2998      C2999   1.410       .  A
C2999      C3000   1.404       .  A
C2999      H3004   1.082       .  S
C3000      C3001   1.406       .  A
C3000      H3005   1.083       .  S
C3001      C3002   1.403       .  A
C3002      H3006   1.083       .  S
C3003      C3008   1.409       .  A
C3003      C3012   1.412       .  A
C3008      C3009   1.395       .  A
C3008      H3013   1.081       .  S
C3009      C3010   1.401       .  A
C3009      H3014   1.084       .  S
C3010      C3011   1.403       .  A
C3011      C3012   1.404       .  A
C3011      H3015   1.083       .  S
C3012      H3016   1.082       .  S
C3017      C3018   1.403       .  A
C3017      C3022   1.392       .  A
C3017      H3027   1.083       .  S
C3018      C3023   1.486       .  S
C3018      C3019   1.407       .  A
C3019      C3020   1.408       .  A
C3019      H3024   1.083       .  S
C3020      C3021   1.409       .  A
C3020      H3025   1.083       .  S
C3021      C3022   1.405       .  A
C3022      H3026   1.083       .  S
C3023      C3028   1.403       .  A
C3023      C3032   1.408       .  A
C3028      C3029   1.393       .  A
C3028      H3033   1.083       .  S
C3029      C3030   1.406       .  A
C3029      H3034   1.083       .  S
C3030      C3031   1.408       .  A
C3031      C3032   1.407       .  A
C3031      H3035   1.083       .  S
C3032      H3036   1.083       .  S
C3037      C3038   1.408       .  A
C3037      C3042   1.401       .  A
C3037      H3047   1.082       .  S
C3038      C3043   1.491       .  S
C3038      C3039   1.408       .  A
C3039      C3040   1.394       .  A
C3039      H3044   1.082       .  S
C3040      C3041   1.403       .  A
C3040      H3045   1.083       .  S
C3041      C3042   1.405       .  A
C3042      H3046   1.083       .  S
C3043      C3048   1.410       .  A
C3043      C3052   1.407       .  A
C3048      C3049   1.402       .  A
C3048      H3053   1.082       .  S
C3049      C3050   1.402       .  A
C3049      H3054   1.083       .  S
C3050      C3051   1.402       .  A
C3051      C3052   1.393       .  A
C3051      H3055   1.083       .  S
C3052      H3056   1.082       .  S
