geometry optimzed in LAMMPS
_audit_creation_date              2020-11-30 
_audit_creation_method            'lammps2cif' 
_symmetry_space_group_name_H-M    'P1' 
_symmetry_Int_Tables_number       1 
_symmetry_cell_setting            triclinic 
loop_ 
_symmetry_equiv_pos_as_xyz 
  x,y,z 
_cell_length_a                    30.40626028 
_cell_length_b                    30.486213700611604 
_cell_length_c                    30.57777920167789 
_cell_angle_alpha                 92.36648433575071 
_cell_angle_beta                  90.71355298424146 
_cell_angle_gamma                 89.77989997681856 
loop_ 
_atom_site_label 
_atom_site_type_symbol 
_atom_site_fract_x 
_atom_site_fract_y 
_atom_site_fract_z 
_atom_site_charge 
C1          C  0.98136023  0.12891154  0.23290960    -0.00500
O2          O  0.03524149  0.06750494  0.36894825    -0.78100
O3          O  0.33970102  0.45644646  0.46188304    -0.79700
O4          O  0.43620760  0.47949542  0.33740582    -0.76700
O5          O  0.39400351  0.09612017  0.42023963    -0.75100
O6          O  0.40729567  0.12129568  0.49074036    -0.76900
O7          O  0.48497148  0.42352488  0.34818796    -0.77800
O8          O  0.35329422  0.50332741  0.40733604    -0.79100
O9          O  0.45720417  0.06462801  0.35657158    -0.79400
Eu10       Eu  0.42720389  0.02114429  0.40981136     2.39200
O11         O  0.40431117  0.02089485  0.48228630    -0.86900
O12         O  0.50259748  0.49756724  0.40437199    -0.90500
C13         C  0.49397444  0.08365983  0.35271899     1.04200
C14         C  0.32743057  0.47939615  0.42917856     1.04000
C15         C  0.45959102  0.44618970  0.32360731     1.03900
C16         C  0.39251531  0.12589889  0.45178146     1.01800
H17         H  0.41313166  0.43176008  0.41104542     0.31500
O18         O  0.43230400  0.44988253  0.42960052    -0.99300
H19         H  0.47222095  0.09578114  0.44381858     0.31600
O20         O  0.47279001  0.06642116  0.45435101    -1.01800
O21         O  0.42580288  0.41133102  0.07340620    -0.79100
O22         O  0.11732027  0.03788441  0.48870160    -0.78600
O23         O  0.45585452  0.35687912  0.43063680    -0.77000
O24         O  0.37163994  0.05894882  0.05874402    -0.80400
O25         O  0.49341435  0.13774728  0.02043539    -0.78200
O26         O  0.08228846  0.43598396  0.39300056    -0.76900
O27         O  0.05403151  0.40061635  0.03588363    -0.78400
O28         O  0.01870686  0.02209767  0.11196233    -0.80300
O29         O  0.04567409  0.37112470  0.46628229    -0.77100
O30         O  0.47275214  0.07547476  0.10307421    -0.79800
O31         O  0.40141378  0.37314542  0.47973998    -0.75500
O32         O  0.10100397  0.50848237  0.40319735    -0.75500
O33         O  0.05171378  0.12098198  0.46714806    -0.75200
O34         O  0.35209314  0.48666803  0.04928805    -0.78700
O35         O  0.49460140  0.43083852  0.09866848    -0.78100
O36         O  0.10057531  0.49657499  0.04476796    -0.76400
Eu37       Eu  0.40666075  0.45016251  0.00492490     2.39800
Eu38       Eu  0.04696792  0.04312215  0.44529298     2.39600
Eu39       Eu  0.50582936  0.42470132  0.42550834     2.38400
Eu40       Eu  0.44740672  0.06949887  0.02681959     2.39900
Eu41       Eu  0.02423360  0.47659439  0.04282069     2.39800
O42         O  0.02198564  0.04812165  0.02106871    -0.90800
O43         O  0.48011256  0.42916860  0.99991047    -0.89700
C44         C  0.45845743  0.41033682  0.10119544     1.04300
C45         C  0.12769137  0.01826451  0.02554939     1.03100
C46         C  0.42131879  0.34618224  0.45314961     1.02500
C47         C  0.34435231  0.02632130  0.06190199     1.04500
C48         C  0.03077800  0.14728860  0.49373799     1.03400
C49         C  0.10930016  0.46904317  0.38966199     1.02200
C50         C  0.05582180  0.37066256  0.00471670     1.02300
C51         C  0.50034257  0.05453567  0.12700822     1.04900
H52         H  0.08074500  0.45936372  0.47143672     0.32300
O53         O  0.05096904  0.47037555  0.47160698    -1.03000
H54         H  0.44002185  0.49675965  0.08012506     0.34300
O55         O  0.45040374  0.49743868  0.05043210    -1.05500
C56         C  0.22590775  0.99828518  0.10412744    -0.00500
O57         O  0.12366213  0.18572390  0.29051569    -0.78100
O58         O  0.20903674  0.28946145  0.08873378    -0.79700
O59         O  0.08782424  0.26089334  0.18478413    -0.76700
O60         O  0.16592173  0.14321409  0.14963220    -0.75100
O61         O  0.23677496  0.12133940  0.16243422    -0.76900
O62         O  0.10067528  0.32066892  0.23080420    -0.77800
O63         O  0.15502568  0.24023895  0.10237930    -0.79100
O64         O  0.10476168  0.18479675  0.21796949    -0.79400
Eu65       Eu  0.15916287  0.22016913  0.17931644     2.39200
O66         O  0.23102102  0.22076050  0.15444171    -0.86900
O67         O  0.15785689  0.24839134  0.25201167    -0.90500
C68         C  0.09597461  0.17972456  0.25804958     1.04200
C69         C  0.17539353  0.26611198  0.07708354     1.04000
C70         C  0.07525301  0.29629357  0.20604687     1.03900
C71         C  0.19730541  0.11436277  0.14877646     1.01800
H72         H  0.16148339  0.31061327  0.16280076     0.31500
O73         O  0.18057547  0.29380658  0.18139349    -0.99300
H74         H  0.19218864  0.15007713  0.22829026     0.31600
O75         O  0.20381760  0.17935704  0.22686198    -1.01800
O76         O  0.33094975  0.31906074  0.16073790    -0.79100
O77         O  0.24942394  0.22951627  0.36668976    -0.78600
O78         O  0.18189933  0.38726013  0.20719702    -0.77000
O79         O  0.30666821  0.18373859  0.12358054    -0.80400
O80         O  0.27104812  0.11411874  0.24905334    -0.78400
O81         O  0.14516770  0.31271849  0.33196823    -0.76900
O82         O  0.29038058  0.35846351  0.30203184    -0.78400
O83         O  0.36911656  0.24176786  0.26445086    -0.80300
O84         O  0.21861806  0.37899830  0.29198641    -0.77100
O85         O  0.35372744  0.17856067  0.22418392    -0.79800
O86         O  0.23248347  0.37166868  0.15372257    -0.75500
O87         O  0.16174045  0.24400379  0.35488771    -0.75500
O88         O  0.22420483  0.13133009  0.30539785    -0.75200
O89         O  0.29310311  0.25329525  0.10126094    -0.78700
O90         O  0.33521603  0.33796252  0.23221863    -0.78100
O91         O  0.30459856  0.27518434  0.34659870    -0.76400
Eu92       Eu  0.25358464  0.29453372  0.15599490     2.39800
Eu93       Eu  0.20332166  0.20860838  0.29900095     2.39600
Eu94       Eu  0.17751953  0.32181275  0.25481555     2.38400
Eu95       Eu  0.27627807  0.17885319  0.20055072     2.39900
Eu96       Eu  0.29806913  0.28307625  0.27040389     2.39800
O97         O  0.27607951  0.20907586  0.27309536    -0.90800
O98         O  0.24966811  0.32326674  0.22754454    -0.89700
C99         C  0.35318065  0.32957267  0.19565142     1.04300
C100        C  0.28264273  0.25561654  0.37509803     1.03100
C101        C  0.20529993  0.39780363  0.17385053     1.02500
C102        C  0.30856319  0.21441975  0.09508940     1.04500
C103        C  0.24926173  0.10422377  0.28365743     1.03400
C104        C  0.14482429  0.28210752  0.36101048     1.02200
C105        C  0.25844240  0.38647703  0.30440295     1.02300
C106        C  0.38038922  0.20432870  0.24615060     1.04900
H107        H  0.22619883  0.29614792  0.32626824     0.32300
O108        O  0.22635063  0.28181450  0.29761101    -1.03000
H109        H  0.32909781  0.24899063  0.18832894     0.34300
O110        O  0.29971695  0.25129218  0.19961966    -1.05500
C111        C  0.10341621  0.25172546  0.47819500    -0.00500
C112        C  0.47042728  0.36956501  0.21912061    -0.00500
C113        C  0.34744032  0.24152946  0.48045649    -0.00500
C114        C  0.22860947  0.50029300  0.35212300    -0.00500
C115        C  0.12377383  0.28860575  0.40496707    -0.14400
C116        C  0.13056235  0.25824721  0.43667337    -0.29600
H117        H  0.10087734  0.31566418  0.40976302     0.14600
H118        H  0.15468528  0.23239331  0.43050332     0.15200
C119        C  0.15770478  0.27073776  0.03221339    -0.14400
C120        C  0.12484531  0.24476400  0.01699316    -0.29600
H121        H  0.16828632  0.29824559  0.01349651     0.14600
H122        H  0.11697850  0.21631683  0.03571252     0.15200
C123        C  0.29845663  0.26725929  0.41952757    -0.14400
C124        C  0.30891529  0.23701909  0.44780495    -0.29600
H125        H  0.31326543  0.29952036  0.42357937     0.14600
H126        H  0.29174686  0.20576497  0.44488510     0.15200
C127        C  0.34010592  0.24131810  0.02755345    -0.14400
C128        C  0.32763479  0.20622617  0.05071023    -0.29600
H129        H  0.34241589  0.27291542  0.04534229     0.14600
H130        H  0.32730599  0.17332974  0.03570599     0.15200
C131        C  0.26679192  0.43041104  0.32358789    -0.14400
C132        C  0.23537472  0.46162858  0.32031082    -0.29600
H133        H  0.29630182  0.43508756  0.34328326     0.14600
H134        H  0.20898697  0.45662868  0.29627193     0.15200
C135        C  0.25346395  0.05880366  0.30026267    -0.14400
C136        C  0.22239251  0.04158734  0.32613003    -0.29600
H137        H  0.28285488  0.03985755  0.29245570     0.14600
H138        H  0.19247626  0.06065178  0.33153170     0.15200
C139        C  0.40113548  0.32903862  0.19526098    -0.14400
C140        C  0.42384461  0.35333368  0.22529329    -0.29600
H141        H  0.41727211  0.30846965  0.17070743     0.14600
H142        H  0.40550791  0.36768993  0.25263624     0.15200
C143        C  0.02847684  0.31090408  0.20296649    -0.14400
C144        C  0.01967223  0.35409554  0.20916268    -0.29600
H145        H  0.00236313  0.28703374  0.19775745     0.14600
H146        H  0.04775171  0.37627128  0.21042955     0.15200
C147        C  0.22987043  0.45751834  0.12702942    -0.14400
C148        C  0.20035236  0.44253131  0.15589374    -0.29600
H149        H  0.25896258  0.43748013  0.12062993     0.14600
H150        H  0.17174844  0.46229254  0.16462678     0.15200
C151        C  0.18878763  0.06989231  0.13063463    -0.14400
C152        C  0.22010722  0.03843316  0.13449080    -0.29600
H153        H  0.15899751  0.06478066  0.11146464     0.14600
H154        H  0.24698402  0.04402914  0.15784688     0.15200
C155        C  0.47107693  0.39704158  0.17847469    -0.14400
C156        C  0.45644729  0.38267630  0.13834165    -0.29600
H157        H  0.48164545  0.43105149  0.18264061     0.14600
H158        H  0.44749306  0.34935669  0.13029499     0.15200
C159        C  0.45603848  0.43144545  0.27667360    -0.14400
C160        C  0.48210990  0.39874006  0.25990745    -0.29600
H161        H  0.42850060  0.44333175  0.25745727     0.14600
H162        H  0.51028119  0.38897520  0.27957797     0.15200
C163        C  0.15381928  0.46317107  0.36997383    -0.14400
C164        C  0.18536697  0.49495688  0.37698058    -0.29600
H165        H  0.15967357  0.43436962  0.34884557     0.14600
H166        H  0.17835106  0.52205667  0.40012039     0.15200
C167        C  0.28104238  0.47761515  0.41352619    -0.14400
C168        C  0.26701761  0.50698726  0.38435911    -0.29600
H169        H  0.26117137  0.44918773  0.42019074     0.14600
H170        H  0.28691219  0.53617187  0.38067577     0.15200
C171        C  0.17372030  0.02009318  0.04228170    -0.14400
C172        C  0.18701586  0.99140556  0.07257890    -0.29600
H173        H  0.19420249  0.04785493  0.03481546     0.14600
H174        H  0.16559905  0.46452094  0.07371969     0.15200
C175        C  0.26857737  0.00178561  0.07792050    -0.14400
C176        C  0.30053063  0.03323358  0.08270100    -0.29600
H177        H  0.27471550  0.97373913  0.05566781     0.14600
H178        H  0.29559082  0.06277345  0.10304588     0.15200
C179        C  0.37250152  0.16876870  0.44398854    -0.14400
C180        C  0.37868278  0.20286496  0.47360564    -0.29600
H181        H  0.34994259  0.17059754  0.41639345     0.14600
H182        H  0.40476880  0.20063029  0.49808339     0.15200
C183        C  0.40183470  0.30023926  0.44901871    -0.14400
C184        C  0.37328292  0.28583827  0.47977069    -0.29600
H185        H  0.41029511  0.27879619  0.42114914     0.14600
H186        H  0.36800141  0.30810343  0.50793228     0.15200
C187        C  0.04799856  0.19302953  0.49916225    -0.14400
C188        C  0.07645372  0.20949962  0.47011300    -0.29600
H189        H  0.03203229  0.21517888  0.02727941     0.14600
H190        H  0.08278764  0.19008601  0.44018167     0.15200
C191        C  0.07372036  0.32718960  0.01374335    -0.14400
C192        C  0.07223942  0.29001823  0.48540444    -0.29600
H193        H  0.09560386  0.32472924  0.04164656     0.14600
H194        H  0.04758194  0.29315402  0.45960943     0.15200
C195        C  0.50642209  0.07116156  0.17331799    -0.14400
C196        C  0.47586198  0.09777931  0.19236959    -0.29600
H197        H  0.02879567  0.06143563  0.19051444     0.14600
H198        H  0.44602807  0.10375547  0.17342597     0.15200
C199        C  0.49564083  0.11017795  0.31499608    -0.14400
C200        C  0.48480877  0.09308747  0.27474696    -0.29600
H201        H  0.50306487  0.14482543  0.32044760     0.14600
H202        H  0.94420085  0.08867636  0.27869606     0.15200
C203        C  0.43636066  0.14626273  0.24346035    -0.14400
C204        C  0.42722591  0.18949928  0.24900676    -0.29600
H205        H  0.40847534  0.12387602  0.24216363     0.14600
H206        H  0.45333930  0.21348610  0.25348944     0.15200
C207        C  0.02639574  0.14971202  0.23057481    -0.14400
C208        C  0.04989887  0.16742099  0.26503502    -0.29600
H209        H  0.04184415  0.14676053  0.19870758     0.14600
H210        H  0.03612795  0.17055146  0.29761211     0.15200
C211        C  0.98094535  0.12085889  0.73351660    -0.00500
O212        O  0.03890505  0.06809163  0.87150433    -0.78100
O213        O  0.33550123  0.45665980  0.96374240    -0.79700
O214        O  0.42955041  0.47745157  0.84043754    -0.76700
O215        O  0.39383757  0.09746428  0.91774397    -0.75100
O216        O  0.40669379  0.12347185  0.98805888    -0.76900
O217        O  0.48030363  0.42322350  0.85077294    -0.77800
O218        O  0.34923447  0.50428203  0.91004433    -0.79100
O219        O  0.45628652  0.06449046  0.85601446    -0.79400
Eu220      Eu  0.42590518  0.02230275  0.90990647     2.39200
O221        O  0.40247503  0.02270756  0.98224281    -0.86900
O222        O  0.49955906  0.49970647  0.90509246    -0.90500
C223        C  0.49334674  0.08286649  0.85192661     1.04200
C224        C  0.32324527  0.48016487  0.93139020     1.04000
C225        C  0.45311529  0.44430589  0.82662579     1.03900
C226        C  0.39273144  0.12777180  0.94866246     1.01800
H227        H  0.41057757  0.43147588  0.91275657     0.31500
O228        O  0.42945071  0.45003186  0.93135782    -0.99300
H229        H  0.47152816  0.09683249  0.94323023     0.31600
O230        O  0.47171053  0.06761033  0.95417069    -1.01800
O231        O  0.42872994  0.41222355  0.57294538    -0.79100
O232        O  0.11615864  0.04017244  0.99184006    -0.78600
O233        O  0.45791351  0.35784107  0.93374975    -0.77000
O234        O  0.37374667  0.05650395  0.55943261    -0.80400
O235        O  0.49475300  0.13608818  0.52081177    -0.78200
O236        O  0.07941721  0.43986104  0.89179326    -0.76900
O237        O  0.05814920  0.39695885  0.53664690    -0.78400
O238        O  0.02362668  0.01990951  0.60997441    -0.80300
O239        O  0.04331476  0.37555327  0.96503308    -0.77100
O240        O  0.47517492  0.07264124  0.60305219    -0.79800
O241        O  0.40040996  0.37353419  0.97947251    -0.75500
O242        O  0.09833762  0.51218995  0.90260463    -0.75500
O243        O  0.04790803  0.12320922  0.96843112    -0.75200
O244        O  0.35585559  0.48671945  0.54774896    -0.78700
O245        O  0.49754035  0.43208279  0.59777286    -0.78100
O246        O  0.10461556  0.49261242  0.54688743    -0.76400
Eu247      Eu  0.41020470  0.44978872  0.50352592     2.39800
Eu248      Eu  0.04635415  0.04477816  0.94807566     2.39600
Eu249      Eu  0.50377796  0.42718387  0.92721982     2.38400
Eu250      Eu  0.44926283  0.06737750  0.52719438     2.39900
Eu251      Eu  0.02784606  0.47234442  0.54415667     2.39800
O252        O  0.02395044  0.04564996  0.51861186    -0.90800
O253        O  0.48308302  0.42687290  0.49861277    -0.89700
C254        C  0.46124384  0.41205937  0.60089827     1.04300
C255        C  0.12900638  0.01642307  0.52274488     1.03100
C256        C  0.42273059  0.34668466  0.95472287     1.02500
C257        C  0.34598024  0.02422609  0.56213430     1.04500
C258        C  0.02546675  0.14947003  0.99383553     1.03400
C259        C  0.10652118  0.47278424  0.88860431     1.02200
C260        C  0.05929509  0.36678994  0.50572694     1.02300
C261        C  0.50268379  0.05170893  0.62700808     1.04900
H262        H  0.07795785  0.46420705  0.97039003     0.32300
O263        O  0.04815555  0.47520108  0.97064089    -1.03000
H264        H  0.44386863  0.49685715  0.57854470     0.34300
O265        O  0.45407287  0.49700620  0.54877769    -1.05500
C266        C  0.22639516  0.99943959  0.60371084    -0.00500
O267        O  0.11891236  0.18561781  0.78974995    -0.78100
O268        O  0.21356679  0.29187179  0.59363298    -0.79700
O269        O  0.08809101  0.26309786  0.68593838    -0.76700
O270        O  0.16709350  0.14550863  0.64921258    -0.75100
O271        O  0.23797414  0.12358876  0.66201394    -0.76900
O272        O  0.10067545  0.32143681  0.73389435    -0.77800
O273        O  0.15846525  0.24298860  0.60468045    -0.79100
O274        O  0.09996007  0.18837425  0.71737850    -0.79400
Eu275      Eu  0.15886610  0.22183259  0.68103523     2.39200
O276        O  0.23191336  0.22364422  0.65898149    -0.86900
O277        O  0.15607749  0.24941640  0.75361685    -0.90500
C278        C  0.09089331  0.18173743  0.75730578     1.04200
C279        C  0.18025603  0.26854512  0.58029885     1.04000
C280        C  0.07539556  0.29771217  0.70834505     1.03900
C281        C  0.19874150  0.11688780  0.64748015     1.01800
H282        H  0.16323828  0.31325329  0.66618791     0.31500
O283        O  0.18144806  0.29575743  0.68497666    -0.99300
H284        H  0.19028894  0.14982725  0.72847732     0.31600
O285        O  0.20190073  0.17922164  0.72827668    -1.01800
O286        O  0.32715560  0.33433231  0.67974735    -0.79100
O287        O  0.23967709  0.22472695  0.87188683    -0.78600
O288        O  0.18380115  0.38968109  0.71271208    -0.77000
O289        O  0.30817350  0.18742835  0.62870662    -0.80400
O290        O  0.26983328  0.11485707  0.75173869    -0.78400
O291        O  0.14248721  0.31409447  0.83358069    -0.76900
O292        O  0.28920710  0.35756007  0.80574100    -0.78400
O293        O  0.36690945  0.23531112  0.77312727    -0.80300
O294        O  0.21731019  0.37851723  0.79767061    -0.77100
O295        O  0.35287646  0.17632108  0.72661340    -0.79800
O296        O  0.23365966  0.37341962  0.65899029    -0.75500
O297        O  0.15521272  0.24408456  0.85497161    -0.75500
O298        O  0.22041964  0.13066189  0.80625135    -0.75200
O299        O  0.29843829  0.25839903  0.60885419    -0.78700
O300        O  0.35274384  0.32034409  0.74860111    -0.78100
O301        O  0.29870812  0.26749878  0.85616534    -0.76400
Eu302      Eu  0.25566859  0.29698830  0.66345273     2.39800
Eu303      Eu  0.19860533  0.20753027  0.80081614     2.39600
Eu304      Eu  0.17737895  0.32248555  0.75846295     2.38400
Eu305      Eu  0.27557271  0.17983092  0.70417761     2.39900
Eu306      Eu  0.29687842  0.27932330  0.77926210     2.39800
O307        O  0.27276553  0.20620330  0.77807628    -0.90800
O308        O  0.25105005  0.32241213  0.73578124    -0.89700
C309        C  0.35601502  0.33694210  0.71130503     1.04300
C310        C  0.27359227  0.24876652  0.88294835     1.03100
C311        C  0.20733665  0.40010925  0.67935182     1.02500
C312        C  0.31182030  0.21889433  0.60132364     1.04500
C313        C  0.24701608  0.10439776  0.78541530     1.03400
C314        C  0.13985414  0.28284827  0.86153638     1.02200
C315        C  0.25749107  0.38602698  0.80846307     1.02300
C316        C  0.37902194  0.19998493  0.75127824     1.04900
H317        H  0.22290775  0.29400210  0.83159395     0.32300
O318        O  0.22369681  0.28033657  0.80257798    -1.03000
H319        H  0.33011400  0.25246976  0.69573499     0.34300
O320        O  0.30042388  0.25236828  0.70654599    -1.05500
C321        C  0.09575785  0.25373045  0.97723770    -0.00500
C322        C  0.47585536  0.37597545  0.71806977    -0.00500
C323        C  0.34906003  0.24180436  0.97840052    -0.00500
C324        C  0.22712944  0.50168994  0.85151464    -0.00500
C325        C  0.11804523  0.28977293  0.90477245    -0.14400
C326        C  0.12377150  0.25945022  0.93640745    -0.29600
H327        H  0.09561541  0.31727850  0.90914200     0.14600
H328        H  0.14749423  0.23312171  0.93064315     0.15200
C329        C  0.16427150  0.27229280  0.53443637    -0.14400
C330        C  0.13335140  0.24428670  0.51795290    -0.29600
H331        H  0.17360258  0.30069579  0.51638398     0.14600
H332        H  0.12708412  0.21507043  0.53612390     0.15200
C333        C  0.28457840  0.26065678  0.92885631    -0.14400
C334        C  0.30510412  0.23210568  0.95410118    -0.29600
H335        H  0.29224107  0.29519824  0.93385929     0.14600
H336        H  0.29331772  0.19845463  0.95223638     0.15200
C337        C  0.32616868  0.24044345  0.52566134    -0.14400
C338        C  0.33208609  0.21063827  0.55745495    -0.29600
H339        H  0.30411798  0.26801342  0.53248962     0.14600
H340        H  0.35164307  0.18118691  0.55173217     0.15200
C341        C  0.26619649  0.43084397  0.82562345    -0.14400
C342        C  0.23466121  0.46199048  0.82098069    -0.29600
H343        H  0.29568231  0.43636892  0.84518260     0.14600
H344        H  0.20867136  0.45618425  0.79666856     0.15200
C345        C  0.25187955  0.05932612  0.80215111    -0.14400
C346        C  0.22096801  0.04216138  0.82805278    -0.29600
H347        H  0.28157699  0.04074227  0.79464260     0.14600
H348        H  0.19079617  0.06088486  0.83322978     0.15200
C349        C  0.39571993  0.36121883  0.70533969    -0.14400
C350        C  0.43534398  0.34718277  0.72043979    -0.29600
H351        H  0.39153639  0.39217260  0.68953366     0.14600
H352        H  0.43766393  0.31692219  0.73796530     0.15200
C353        C  0.02858869  0.31207939  0.70568538    -0.14400
C354        C  0.01972078  0.35512323  0.71232786    -0.29600
H355        H  0.00251662  0.28823625  0.70000330     0.14600
H356        H  0.04777898  0.37733795  0.71382960     0.15200
C357        C  0.23418058  0.45937063  0.63275093    -0.14400
C358        C  0.20372441  0.44508997  0.66128058    -0.29600
H359        H  0.26341683  0.43916561  0.62778782     0.14600
H360        H  0.17494365  0.46508020  0.66875350     0.15200
C361        C  0.19067199  0.07286382  0.62763912    -0.14400
C362        C  0.22095576  0.04060254  0.63287694    -0.29600
H363        H  0.16176866  0.06847684  0.60700325     0.14600
H364        H  0.24715488  0.04586557  0.65705164     0.15200
C365        C  0.47216017  0.40451143  0.67896397    -0.14400
C366        C  0.45893529  0.38683043  0.63954896    -0.29600
H367        H  0.48068267  0.43910811  0.68260931     0.14600
H368        H  0.44895836  0.35271522  0.63544424     0.15200
C369        C  0.44874293  0.42842476  0.78003502    -0.14400
C370        C  0.48000427  0.40204626  0.76178848    -0.29600
H371        H  0.41941400  0.43666032  0.76147896     0.14600
H372        H  0.50946082  0.39626682  0.78138674     0.15200
C373        C  0.15095903  0.46646159  0.86859728    -0.14400
C374        C  0.18280966  0.49795590  0.87503617    -0.29600
H375        H  0.15678842  0.43708607  0.84827123     0.14600
H376        H  0.17566992  0.52579669  0.89722165     0.15200
C377        C  0.27701465  0.47883517  0.91503698    -0.14400
C378        C  0.26411023  0.50829870  0.88534700    -0.29600
H379        H  0.25687980  0.45038894  0.92096199     0.14600
H380        H  0.28417172  0.53747438  0.88237267     0.15200
C381        C  0.17486211  0.01900392  0.54011678    -0.14400
C382        C  0.18754233  0.99192256  0.57217750    -0.29600
H383        H  0.19568983  0.04605789  0.53138073     0.14600
H384        H  0.17007327  0.46357417  0.57904357     0.15200
C385        C  0.26935578  0.00147642  0.57767337    -0.14400
C386        C  0.30222114  0.03188978  0.58283569    -0.29600
H387        H  0.27499458  0.97313330  0.55565465     0.14600
H388        H  0.29793572  0.06147498  0.60326174     0.15200
C389        C  0.37408911  0.17085066  0.93943296    -0.14400
C390        C  0.38216635  0.20561363  0.96752578    -0.29600
H391        H  0.34971106  0.17218869  0.91332105     0.14600
H392        H  0.41036293  0.20417994  0.98972084     0.15200
C393        C  0.40697052  0.29960368  0.95229626    -0.14400
C394        C  0.36758284  0.28829064  0.96980508    -0.29600
H395        H  0.42866594  0.27438212  0.93863529     0.14600
H396        H  0.34679747  0.31511514  0.98189657     0.15200
C397        C  0.04031263  0.19584565  0.99788150    -0.14400
C398        C  0.06791910  0.21247344  0.96837867    -0.29600
H399        H  0.03961860  0.21235731  0.52853675     0.14600
H400        H  0.07404195  0.19307061  0.93836518     0.15200
C401        C  0.07814574  0.32386254  0.51489063    -0.14400
C402        C  0.06597571  0.29320931  0.98470560    -0.29600
H403        H  0.09937591  0.32191634  0.54332439     0.14600
H404        H  0.04113480  0.29714845  0.95922062     0.15200
C405        C  0.50811231  0.06823242  0.67335955    -0.14400
C406        C  0.47733666  0.09519803  0.69156641    -0.29600
H407        H  0.03587667  0.06150365  0.68792682     0.14600
H408        H  0.44796260  0.10131465  0.67198020     0.15200
C409        C  0.49557924  0.10854274  0.81386148    -0.14400
C410        C  0.48489403  0.09090957  0.77386386    -0.29600
H411        H  0.50314539  0.14320343  0.81889109     0.14600
H412        H  0.95452442  0.06854227  0.77334372     0.15200
C413        C  0.43627605  0.14324185  0.74201919    -0.14400
C414        C  0.42625256  0.18551490  0.75282859    -0.29600
H415        H  0.40864828  0.12074512  0.73768495     0.14600
H416        H  0.45197612  0.20907567  0.76120883     0.15200
C417        C  0.02029936  0.15177027  0.73094852    -0.14400
C418        C  0.04482132  0.16849344  0.76500324    -0.29600
H419        H  0.03338989  0.15457145  0.69824264     0.14600
H420        H  0.03315317  0.16764458  0.79834717     0.15200
C421        C  0.98113776  0.62235670  0.23719173    -0.00500
O422        O  0.02776371  0.57924097  0.37919044    -0.78100
O423        O  0.33763948  0.95378553  0.46200897    -0.79700
O424        O  0.43068885  0.97674182  0.33942019    -0.76700
O425        O  0.39890924  0.59877208  0.41718741    -0.75100
O426        O  0.40986978  0.62323921  0.48830606    -0.76900
O427        O  0.48149038  0.92233840  0.34881651    -0.77800
O428        O  0.35088443  0.00134650  0.40817271    -0.79100
O429        O  0.46495333  0.56131796  0.35171487    -0.79400
Eu430      Eu  0.43016459  0.52321627  0.40793548     2.39200
O431        O  0.40705996  0.52235189  0.48046997    -0.86900
O432        O  0.50085144  0.99807803  0.40342311    -0.90500
C433        C  0.50460169  0.57257688  0.34465701     1.04200
C434        C  0.32520509  0.97686004  0.42937758     1.04000
C435        C  0.45411980  0.94372806  0.32508167     1.03900
C436        C  0.39667314  0.62829224  0.44883490     1.01800
H437        H  0.41228836  0.92944181  0.41171742     0.31500
O438        O  0.43121075  0.94793365  0.43028985    -0.99300
H439        H  0.47635069  0.59784403  0.44103340     0.31600
O440        O  0.47594985  0.56875971  0.45226988    -1.01800
O441        O  0.42603450  0.91172566  0.07283649    -0.79100
O442        O  0.11813636  0.53808616  0.49127712    -0.78600
O443        O  0.45966454  0.85559514  0.43266765    -0.77000
O444        O  0.37096362  0.55920832  0.05821539    -0.80400
O445        O  0.49337114  0.63815899  0.02189764    -0.78200
O446        O  0.08094771  0.93382189  0.39062454    -0.76900
O447        O  0.05621646  0.90043141  0.03598770    -0.78400
O448        O  0.02255086  0.52273073  0.11198388    -0.80300
O449        O  0.04572301  0.87116229  0.46329726    -0.77100
O450        O  0.46943386  0.57500310  0.10434611    -0.79800
O451        O  0.40265336  0.87163465  0.47891322    -0.75500
O452        O  0.10160231  0.00537534  0.40336439    -0.75500
O453        O  0.05152199  0.62031134  0.47215413    -0.75200
O454        O  0.35220837  0.98677803  0.04811237    -0.78700
O455        O  0.49625889  0.92934782  0.09523665    -0.78100
O456        O  0.10125395  0.99495020  0.04721886    -0.76400
Eu457      Eu  0.40742289  0.95005486  0.00438187     2.39800
Eu458      Eu  0.04711158  0.54310222  0.44907216     2.39600
Eu459      Eu  0.50559569  0.92522225  0.42527291     2.38400
Eu460      Eu  0.44694034  0.56990496  0.02738838     2.39900
Eu461      Eu  0.02454227  0.97569875  0.04279626     2.39800
O462        O  0.02060870  0.54906787  0.02117664    -0.90800
O463        O  0.48087608  0.92935843  0.99832250    -0.89700
C464        C  0.45964397  0.91018596  0.09928622     1.04300
C465        C  0.12626108  0.52095280  0.02341349     1.03100
C466        C  0.42462419  0.84462295  0.45410482     1.02500
C467        C  0.34395346  0.52649525  0.06189969     1.04500
C468        C  0.03018348  0.64657028  0.49835999     1.03400
C469        C  0.10889214  0.96620435  0.38857910     1.02200
C470        C  0.05728222  0.86994133  0.00527943     1.02300
C471        C  0.49643394  0.55381519  0.12863481     1.04900
H472        H  0.07943592  0.95937973  0.46922474     0.32300
O473        O  0.04980924  0.97083487  0.46893539    -1.03000
H474        H  0.44153329  0.99652252  0.07980919     0.34300
O475        O  0.45144823  0.99714410  0.04995723    -1.05500
C476        C  0.22496491  0.49924555  0.10076200    -0.00500
O477        O  0.12853228  0.66967685  0.28240238    -0.78100
O478        O  0.21305513  0.79040401  0.09136108    -0.79700
O479        O  0.08868693  0.75969494  0.18379634    -0.76700
O480        O  0.16824938  0.64435336  0.14719911    -0.75100
O481        O  0.23854666  0.62125294  0.16121546    -0.76900
O482        O  0.10011064  0.81784277  0.23213148    -0.77800
O483        O  0.15816182  0.74157120  0.10307040    -0.79100
O484        O  0.10498966  0.67973782  0.21194176    -0.79400
Eu485      Eu  0.16034837  0.72002610  0.17901542     2.39200
O486        O  0.23324892  0.72136700  0.15591582    -0.86900
O487        O  0.15549607  0.74590539  0.25241661    -0.90500
C488        C  0.10045028  0.66548052  0.25015273     1.04200
C489        C  0.17930091  0.76745472  0.07855634     1.04000
C490        C  0.07536844  0.79409823  0.20610068     1.03900
C491        C  0.19919673  0.61513436  0.14660417     1.01800
H492        H  0.16351150  0.81069708  0.16428243     0.31500
O493        O  0.18207348  0.79353024  0.18300466    -0.99300
H494        H  0.19390618  0.64892434  0.22601209     0.31600
O495        O  0.20507675  0.67846195  0.22554220    -1.01800
O496        O  0.32724217  0.83317127  0.17698508    -0.79100
O497        O  0.24240614  0.72290930  0.36909960    -0.78600
O498        O  0.18154939  0.88565466  0.20994714    -0.77000
O499        O  0.30874674  0.68487172  0.12464280    -0.80400
O500        O  0.27328009  0.61281928  0.24825286    -0.78400
O501        O  0.14428869  0.80952259  0.33304465    -0.76900
O502        O  0.28882704  0.85621109  0.30206736    -0.78400
O503        O  0.36343835  0.73022460  0.27962776    -0.80300
O504        O  0.21690580  0.87699565  0.29352299    -0.77100
O505        O  0.35469139  0.67541274  0.22682365    -0.79800
O506        O  0.23261510  0.87096200  0.15681509    -0.75500
O507        O  0.15746840  0.73924995  0.35359914    -0.75500
O508        O  0.22602928  0.62957578  0.30435928    -0.75200
O509        O  0.29911715  0.75621325  0.10604087    -0.78700
O510        O  0.35304541  0.81796259  0.24542999    -0.78100
O511        O  0.29791709  0.76998029  0.35342735    -0.76400
Eu512      Eu  0.25621819  0.79491026  0.16066634     2.39800
Eu513      Eu  0.20147717  0.70498002  0.29818124     2.39600
Eu514      Eu  0.17677674  0.81925281  0.25665420     2.38400
Eu515      Eu  0.27814706  0.67820081  0.20091400     2.39900
Eu516      Eu  0.29679385  0.77806760  0.27643207     2.39800
O517        O  0.27493661  0.70447239  0.27477968    -0.90800
O518        O  0.25014730  0.81973261  0.23297821    -0.89700
C519        C  0.35614126  0.83535375  0.20855639     1.04300
C520        C  0.27447580  0.74939210  0.38011673     1.03100
C521        C  0.20513084  0.89672212  0.17687426     1.02500
C522        C  0.31226080  0.71673174  0.09773602     1.04500
C523        C  0.25149289  0.60290474  0.28280118     1.03400
C524        C  0.14244196  0.77806435  0.36095515     1.02200
C525        C  0.25710657  0.88463683  0.30436214     1.02300
C526        C  0.37729409  0.69617826  0.25702570     1.04900
H527        H  0.22320010  0.79212595  0.32919400     0.32300
O528        O  0.22408446  0.77827544  0.30024517    -1.03000
H529        H  0.33207816  0.75131646  0.19335970     0.34300
O530        O  0.30219214  0.75109496  0.20367252    -1.05500
C531        C  0.10190625  0.75040540  0.47897148    -0.00500
C532        C  0.47575251  0.87557917  0.21629403    -0.00500
C533        C  0.34816627  0.74158204  0.47766935    -0.00500
C534        C  0.22741708  0.99869683  0.35086664    -0.00500
C535        C  0.12216613  0.78507772  0.40506519    -0.14400
C536        C  0.12874723  0.75508842  0.43696885    -0.29600
H537        H  0.10019382  0.81285726  0.41005047     0.14600
H538        H  0.15206243  0.72850919  0.43065287     0.15200
C539        C  0.16189057  0.77207846  0.03334512    -0.14400
C540        C  0.12941925  0.74533106  0.01798742    -0.29600
H541        H  0.17190404  0.79992698  0.01483196     0.14600
H542        H  0.12234898  0.71660624  0.03660685     0.15200
C543        C  0.28608341  0.76070619  0.42574820    -0.14400
C544        C  0.30677444  0.73146353  0.44971979    -0.29600
H545        H  0.29307133  0.79524487  0.43209871     0.14600
H546        H  0.29601910  0.69754753  0.44560694     0.15200
C547        C  0.34051724  0.74371522  0.02846897    -0.14400
C548        C  0.32983030  0.70878028  0.05260701    -0.29600
H549        H  0.34178081  0.77572748  0.04553393     0.14600
H550        H  0.33035774  0.67567024  0.03811441     0.15200
C551        C  0.26609675  0.92928936  0.32166749    -0.14400
C552        C  0.23458231  0.96052811  0.31834186    -0.29600
H553        H  0.29581278  0.93439184  0.34097267     0.14600
H554        H  0.20801414  0.95524315  0.29455266     0.15200
C555        C  0.25558748  0.55798097  0.29987364    -0.14400
C556        C  0.22416043  0.54207387  0.32612716    -0.29600
H557        H  0.28493670  0.53873234  0.29266949     0.14600
H558        H  0.19434267  0.56146821  0.33084435     0.15200
C559        C  0.39558664  0.86022842  0.20342722    -0.14400
C560        C  0.43525209  0.84673572  0.21914319    -0.29600
H561        H  0.39113945  0.89116949  0.18764978     0.14600
H562        H  0.43777082  0.81652472  0.23670778     0.15200
C563        C  0.02861014  0.80844295  0.20247301    -0.14400
C564        C  0.01980033  0.85163364  0.20828826    -0.29600
H565        H  0.00259768  0.78449628  0.19701863     0.14600
H566        H  0.04792443  0.87375115  0.20994487     0.15200
C567        C  0.23078011  0.95726706  0.13157315    -0.14400
C568        C  0.20019639  0.94156197  0.15903032    -0.29600
H569        H  0.26070143  0.93802819  0.12689815     0.14600
H570        H  0.17063059  0.96048580  0.16614267     0.15200
C571        C  0.18973920  0.57122330  0.12785309    -0.14400
C572        C  0.21960721  0.53863650  0.13215824    -0.29600
H573        H  0.16016826  0.56738822  0.10813700     0.14600
H574        H  0.24610517  0.54308001  0.15615203     0.15200
C575        C  0.47149688  0.90350268  0.17690558    -0.14400
C576        C  0.45812680  0.88511260  0.13784877    -0.29600
H577        H  0.47951220  0.93825387  0.18005562     0.14600
H578        H  0.44863849  0.85082732  0.13407057     0.15200
C579        C  0.44921047  0.92825258  0.27839105    -0.14400
C580        C  0.48036541  0.90211894  0.25967930    -0.29600
H581        H  0.41947379  0.93620932  0.26033404     0.14600
H582        H  0.51019008  0.89673604  0.27884929     0.15200
C583        C  0.15321954  0.96025209  0.36864722    -0.14400
C584        C  0.18451375  0.99225942  0.37574520    -0.29600
H585        H  0.15888175  0.93185202  0.34691921     0.14600
H586        H  0.17767829  0.01887358  0.39949635     0.15200
C587        C  0.27912139  0.97478622  0.41267903    -0.14400
C588        C  0.26549488  0.00464209  0.38361867    -0.29600
H589        H  0.25933863  0.94607177  0.41850417     0.14600
H590        H  0.28521790  0.03405466  0.38075176     0.15200
C591        C  0.17249103  0.52250329  0.03952849    -0.14400
C592        C  0.18594084  0.49323373  0.06926862    -0.29600
H593        H  0.19289445  0.55041586  0.03236617     0.14600
H594        H  0.16662161  0.96281692  0.07741484     0.15200
C595        C  0.26745444  0.50329573  0.07470066    -0.14400
C596        C  0.29996971  0.53374176  0.08168865    -0.29600
H597        H  0.27332722  0.47620269  0.05119642     0.14600
H598        H  0.29544699  0.56248594  0.10324553     0.15200
C599        C  0.37737626  0.67122792  0.44035063    -0.14400
C600        C  0.38169081  0.70488284  0.47057187    -0.29600
H601        H  0.35600660  0.67339623  0.41185381     0.14600
H602        H  0.40760215  0.70333249  0.49532763     0.15200
C603        C  0.40822785  0.79771095  0.45230252    -0.14400
C604        C  0.36840868  0.78742800  0.46974391    -0.29600
H605        H  0.42940988  0.77194851  0.43881984     0.14600
H606        H  0.34796294  0.81486489  0.48094895     0.15200
C607        C  0.04656364  0.69265170  0.50245195    -0.14400
C608        C  0.07394179  0.70870377  0.47213907    -0.29600
H609        H  0.03554244  0.71632311  0.03144511     0.14600
H610        H  0.07920691  0.68884998  0.44224669     0.15200
C611        C  0.07674235  0.82707016  0.01419767    -0.14400
C612        C  0.07169033  0.78973158  0.48566924    -0.29600
H613        H  0.09878154  0.82521552  0.04204864     0.14600
H614        H  0.04565147  0.79197680  0.46110580     0.15200
C615        C  0.50157727  0.56987591  0.17505012    -0.14400
C616        C  0.47331007  0.59984451  0.19287760    -0.29600
H617        H  0.03571685  0.56303910  0.19026819     0.14600
H618        H  0.44391099  0.60745583  0.17394048     0.15200
C619        C  0.51289542  0.58968057  0.30146246    -0.14400
C620        C  0.47924533  0.60035100  0.27424767    -0.29600
H621        H  0.54695337  0.59447356  0.29308152     0.14600
H622        H  0.97899917  0.55631362  0.26829813     0.15200
C623        C  0.44854325  0.66557177  0.23431862    -0.14400
C624        C  0.42114891  0.67738962  0.26719977    -0.29600
H625        H  0.44234513  0.68019282  0.20290427     0.14600
H626        H  0.42741084  0.66718424  0.30028179     0.15200
C627        C  0.02174852  0.65172192  0.23631126    -0.14400
C628        C  0.06064762  0.64087741  0.25584162    -0.29600
H629        H  0.02011877  0.68035361  0.21629350     0.14600
H630        H  0.06525450  0.61125527  0.27370898     0.15200
C631        C  0.98691935  0.62856233  0.73348821    -0.00500
O632        O  0.02401422  0.58392114  0.87774002    -0.78100
O633        O  0.33631694  0.95483600  0.96335016    -0.79700
O634        O  0.42874915  0.97851254  0.83948466    -0.76700
O635        O  0.39463453  0.59881665  0.91810965    -0.75100
O636        O  0.40706826  0.62446662  0.98863200    -0.76900
O637        O  0.48003353  0.92465149  0.84907668    -0.77800
O638        O  0.34957099  0.00231216  0.90946149    -0.79100
O639        O  0.45810366  0.56413530  0.85586084    -0.79400
Eu640      Eu  0.42602051  0.52303073  0.91015211     2.39200
O641        O  0.40245858  0.52293496  0.98250327    -0.86900
O642        O  0.49958528  0.99939224  0.90350078    -0.90500
C643        C  0.49501323  0.58310237  0.85252786     1.04200
C644        C  0.32389529  0.97794874  0.93083577     1.04000
C645        C  0.45266405  0.94590612  0.82520220     1.03900
C646        C  0.39340507  0.62904111  0.94918216     1.01800
H647        H  0.41091237  0.93086923  0.91214777     0.31500
O648        O  0.42988471  0.94937496  0.93067342    -0.99300
H649        H  0.47182199  0.59749564  0.94401311     0.31600
O650        O  0.47161493  0.56824885  0.95488065    -1.01800
O651        O  0.42775402  0.91010607  0.57240872    -0.79100
O652        O  0.11387852  0.54382043  0.99060250    -0.78600
O653        O  0.45857896  0.85772445  0.93218572    -0.77000
O654        O  0.37545653  0.55896533  0.55717734    -0.80400
O655        O  0.49772556  0.63683854  0.51926754    -0.78200
O656        O  0.07959625  0.93555499  0.89144580    -0.76900
O657        O  0.05846442  0.89833954  0.53318505    -0.78400
O658        O  0.02207566  0.51497954  0.61568843    -0.80300
O659        O  0.04292921  0.87381832  0.96604697    -0.77100
O660        O  0.47641145  0.57455398  0.60197419    -0.79800
O661        O  0.40207379  0.87361545  0.97910301    -0.75500
O662        O  0.10096522  0.00661175  0.90605798    -0.75500
O663        O  0.04751588  0.62446924  0.97169712    -0.75200
O664        O  0.35326696  0.98469834  0.54785611    -0.78700
O665        O  0.49772237  0.92861374  0.59501087    -0.78100
O666        O  0.10277377  0.99308839  0.54455274    -0.76400
Eu667      Eu  0.40864194  0.94814386  0.50389553     2.39800
Eu668      Eu  0.04343444  0.54768370  0.94760860     2.39600
Eu669      Eu  0.50430094  0.92687086  0.92557367     2.38400
Eu670      Eu  0.45136212  0.56913890  0.52538779     2.39900
Eu671      Eu  0.02646347  0.97339491  0.54102896     2.39800
O672        O  0.02516206  0.54512333  0.52300820    -0.90800
O673        O  0.48232943  0.92736358  0.49808684    -0.89700
C674        C  0.46121489  0.90929367  0.59910467     1.04300
C675        C  0.13047857  0.51631238  0.52488543     1.03100
C676        C  0.42387900  0.84676492  0.95393647     1.02500
C677        C  0.34813483  0.52644157  0.56090166     1.04500
C678        C  0.02595398  0.65071805  0.99769103     1.03400
C679        C  0.10783186  0.96770981  0.89020643     1.02200
C680        C  0.06006260  0.86772958  0.50263712     1.02300
C681        C  0.50370654  0.55345678  0.62614177     1.04900
H682        H  0.07839789  0.96075543  0.97135140     0.32300
O683        O  0.04878759  0.97231009  0.97087418    -1.03000
H684        H  0.44317371  0.99437338  0.57943839     0.34300
O685        O  0.45302990  0.99496832  0.54957094    -1.05500
C686        C  0.22968188  0.49962204  0.60399785    -0.00500
O687        O  0.13274595  0.66950877  0.78534792    -0.78100
O688        O  0.21444373  0.78998585  0.59212349    -0.79700
O689        O  0.09038066  0.76082738  0.68619579    -0.76700
O690        O  0.17121858  0.64562359  0.64841931    -0.75100
O691        O  0.24227990  0.62408836  0.66088658    -0.76900
O692        O  0.10198186  0.81998996  0.73317748    -0.77800
O693        O  0.15967686  0.74110905  0.60425279    -0.79100
O694        O  0.11029460  0.67871007  0.71437981    -0.79400
Eu695      Eu  0.16256710  0.72140154  0.68054832     2.39200
O696        O  0.23525401  0.72367777  0.65706443    -0.86900
O697        O  0.15804195  0.74730589  0.75397046    -0.90500
C698        C  0.10542019  0.66470689  0.75261659     1.04200
C699        C  0.18103466  0.76645200  0.57939503     1.04000
C700        C  0.07709518  0.79574252  0.70782535     1.03900
C701        C  0.20288004  0.61712222  0.64686261     1.01800
H702        H  0.16438202  0.81219249  0.66520147     0.31500
O703        O  0.18323511  0.79530271  0.68391000    -0.99300
H704        H  0.19714950  0.65074800  0.72718763     0.31600
O705        O  0.20783658  0.68047115  0.72698193    -1.01800
O706        O  0.32755561  0.83770347  0.67825746    -0.79100
O707        O  0.24462546  0.72444653  0.87098989    -0.78600
O708        O  0.18183267  0.88799776  0.71153443    -0.77000
O709        O  0.31361431  0.68980421  0.62725850    -0.80400
O710        O  0.27587490  0.61453970  0.74862239    -0.78400
O711        O  0.14469674  0.81119262  0.83302778    -0.76900
O712        O  0.29090415  0.85866422  0.80305622    -0.78400
O713        O  0.37029325  0.73754690  0.77158414    -0.80300
O714        O  0.21886018  0.87862212  0.79391290    -0.77100
O715        O  0.35748149  0.67886661  0.72432434    -0.79800
O716        O  0.23211918  0.87321546  0.65778391    -0.75500
O717        O  0.15896937  0.74133894  0.85418224    -0.75500
O718        O  0.22941816  0.63129943  0.80535721    -0.75200
O719        O  0.30267092  0.76075253  0.60777982    -0.78700
O720        O  0.35335605  0.82332253  0.74696872    -0.78100
O721        O  0.30080898  0.77057697  0.85496021    -0.76400
Eu722      Eu  0.25730721  0.79761422  0.66161361     2.39800
Eu723      Eu  0.20467110  0.70680341  0.79977986     2.39600
Eu724      Eu  0.17853298  0.82092775  0.75759442     2.38400
Eu725      Eu  0.28051399  0.68086745  0.70207402     2.39900
Eu726      Eu  0.29947435  0.78047841  0.77753344     2.39800
O727        O  0.27846173  0.70650468  0.77638005    -0.90800
O728        O  0.25188925  0.82164448  0.73418282    -0.89700
C729        C  0.35628904  0.84050003  0.71000718     1.04300
C730        C  0.27694125  0.75054575  0.88193099     1.03100
C731        C  0.20491075  0.89905730  0.67810611     1.02500
C732        C  0.31713645  0.72158161  0.60026634     1.04500
C733        C  0.25422873  0.60443167  0.78325283     1.03400
C734        C  0.14273404  0.77981111  0.86092765     1.02200
C735        C  0.25883489  0.88671449  0.80513932     1.02300
C736        C  0.38299920  0.70252381  0.74955783     1.04900
H737        H  0.22546696  0.79406953  0.83041654     0.32300
O738        O  0.22653987  0.78039673  0.80140163    -1.03000
H739        H  0.33302064  0.75509385  0.69386778     0.34300
O740        O  0.30331852  0.75409318  0.70463661    -1.05500
C741        C  0.09942579  0.75317321  0.97850243    -0.00500
C742        C  0.47655541  0.87795262  0.71699629    -0.00500
C743        C  0.34981663  0.74336443  0.97927355    -0.00500
C744        C  0.22641393  0.99963847  0.85286029    -0.00500
C745        C  0.12080478  0.78673758  0.90427789    -0.14400
C746        C  0.12657454  0.75706840  0.93655307    -0.29600
H747        H  0.09871732  0.81453830  0.90854433     0.14600
H748        H  0.14979972  0.73030302  0.93082801     0.15200
C749        C  0.16436759  0.76979168  0.53375296    -0.14400
C750        C  0.13191920  0.74292308  0.51860984    -0.29600
H751        H  0.17477253  0.79709110  0.51468596     0.14600
H752        H  0.12466730  0.71459218  0.53774215     0.15200
C753        C  0.28744049  0.76287712  0.92782412    -0.14400
C754        C  0.30613207  0.73426682  0.95436630    -0.29600
H755        H  0.29565183  0.79732891  0.93247597     0.14600
H756        H  0.29380826  0.70081236  0.95254730     0.15200
C757        C  0.33178590  0.74340930  0.52485925    -0.14400
C758        C  0.33781088  0.71363479  0.55655347    -0.29600
H759        H  0.31058006  0.77148860  0.53228439     0.14600
H760        H  0.35583898  0.68334357  0.55006994     0.15200
C761        C  0.26680086  0.93137316  0.82296661    -0.14400
C762        C  0.23421623  0.96164642  0.82034769    -0.29600
H763        H  0.29643446  0.93703358  0.84227967     0.14600
H764        H  0.20773240  0.95601980  0.79654339     0.15200
C765        C  0.25729382  0.55904195  0.79980584    -0.14400
C766        C  0.22448524  0.54312723  0.82451709    -0.29600
H767        H  0.28688117  0.53975079  0.79388387     0.14600
H768        H  0.19462454  0.56275646  0.82760858     0.15200
C769        C  0.39599252  0.86500486  0.70499821    -0.14400
C770        C  0.43555911  0.84987970  0.71959883    -0.29600
H771        H  0.39225851  0.89655020  0.69014655     0.14600
H772        H  0.43785868  0.81846549  0.73506230     0.15200
C773        C  0.03022854  0.81010230  0.70429187    -0.14400
C774        C  0.02114572  0.85328460  0.71044310    -0.29600
H775        H  0.00430161  0.78615428  0.69836496     0.14600
H776        H  0.04914718  0.87553706  0.71240908     0.15200
C777        C  0.23071972  0.95915547  0.63239220    -0.14400
C778        C  0.19997431  0.94390141  0.66002851    -0.29600
H779        H  0.26058497  0.93971553  0.62827769     0.14600
H780        H  0.17039844  0.96291719  0.66685514     0.15200
C781        C  0.19438716  0.57292689  0.62793711    -0.14400
C782        C  0.22457266  0.54070763  0.63319555    -0.29600
H783        H  0.16505249  0.56832317  0.60798866     0.14600
H784        H  0.25116506  0.54616889  0.65691462     0.15200
C785        C  0.47324382  0.90465214  0.67680792    -0.14400
C786        C  0.45948001  0.88533004  0.63828652    -0.29600
H787        H  0.48195302  0.93927063  0.67899501     0.14600
H788        H  0.44918885  0.85122930  0.63548266     0.15200
C789        C  0.44851621  0.93083905  0.77838267    -0.14400
C790        C  0.48041876  0.90546457  0.75991304    -0.29600
H791        H  0.41869364  0.93822009  0.76022625     0.14600
H792        H  0.51018982  0.90090751  0.77939622     0.15200
C793        C  0.15198498  0.96166742  0.86997461    -0.14400
C794        C  0.18361620  0.99310175  0.87771869    -0.29600
H795        H  0.15727023  0.93371250  0.84756654     0.14600
H796        H  0.17705075  0.01941452  0.90189053     0.15200
C797        C  0.27781779  0.97605904  0.91452296    -0.14400
C798        C  0.26423530  0.00598963  0.88563501    -0.29600
H799        H  0.25805465  0.94730561  0.92025147     0.14600
H800        H  0.28387061  0.03547776  0.88279788     0.15200
C801        C  0.17674694  0.51905351  0.54131832    -0.14400
C802        C  0.19042357  0.49186297  0.57287781    -0.29600
H803        H  0.19709613  0.54642374  0.53243402     0.14600
H804        H  0.16678128  0.96391203  0.57829128     0.15200
C805        C  0.27238321  0.50211005  0.57763760    -0.14400
C806        C  0.30433780  0.53370401  0.58153881    -0.29600
H807        H  0.27852661  0.47341518  0.55624050     0.14600
H808        H  0.29936332  0.56380741  0.60100056     0.15200
C809        C  0.37481021  0.67228258  0.94023548    -0.14400
C810        C  0.38265061  0.70679131  0.96875911    -0.29600
H811        H  0.35063204  0.67390916  0.91396918     0.14600
H812        H  0.41061066  0.70512385  0.99121594     0.15200
C813        C  0.40796889  0.79993390  0.95204607    -0.14400
C814        C  0.36889515  0.78934798  0.97042253    -0.29600
H815        H  0.42914810  0.77443205  0.93808474     0.14600
H816        H  0.34847664  0.81647697  0.98252004     0.15200
C817        C  0.04279445  0.69661658  0.00200309    -0.14400
C818        C  0.07061360  0.71212773  0.97177169    -0.29600
H819        H  0.03907488  0.71230251  0.53186590     0.14600
H820        H  0.07552079  0.69222662  0.94184532     0.15200
C821        C  0.08011878  0.82535038  0.51232391    -0.14400
C822        C  0.06993966  0.79294919  0.98511039    -0.29600
H823        H  0.10359278  0.82495593  0.53907583     0.14600
H824        H  0.04495473  0.79616175  0.95963736     0.15200
C825        C  0.50963024  0.56992204  0.67252172    -0.14400
C826        C  0.47921555  0.59678110  0.69141904    -0.29600
H827        H  0.00946481  0.54008908  0.70121329     0.14600
H828        H  0.44969735  0.60319018  0.67214859     0.15200
C829        C  0.49780340  0.60893829  0.81435354    -0.14400
C830        C  0.48716598  0.59174492  0.77405866    -0.29600
H831        H  0.50580380  0.64348249  0.81957773     0.14600
H832        H  0.97009195  0.56540912  0.76613259     0.15200
C833        C  0.43938384  0.64510468  0.74244505    -0.14400
C834        C  0.43003128  0.68782980  0.75186291    -0.29600
H835        H  0.41145976  0.62288457  0.73882282     0.14600
H836        H  0.45598518  0.71136364  0.75945287     0.15200
C837        C  0.02706814  0.65725574  0.74017723    -0.14400
C838        C  0.06500872  0.64116167  0.75719394    -0.29600
H839        H  0.02650183  0.68977431  0.72675878     0.14600
H840        H  0.06737997  0.60857079  0.77004687     0.15200
C841        C  0.48057643  0.12292691  0.23660975    -0.00500
O842        O  0.52733356  0.08203087  0.37949337    -0.78100
O843        O  0.83832624  0.45399852  0.46274081    -0.79700
O844        O  0.93173721  0.47691316  0.34026296    -0.76700
O845        O  0.89475186  0.09740903  0.41454730    -0.75100
O846        O  0.90752337  0.12232470  0.48518426    -0.76900
O847        O  0.98235977  0.42225089  0.34916461    -0.77800
O848        O  0.85197842  0.50128311  0.40883223    -0.79100
O849        O  0.96310210  0.05895808  0.34845931    -0.79400
Eu850      Eu  0.92828485  0.02235311  0.40575285     2.39200
O851        O  0.90564299  0.02183303  0.47824941    -0.86900
O852        O  0.00176811  0.49687984  0.40446263    -0.90500
C853        C  0.00281043  0.06985944  0.34115582     1.04200
C854        C  0.82607606  0.47716418  0.43014215     1.04000
C855        C  0.95516689  0.44413203  0.32563379     1.03900
C856        C  0.89266537  0.12699678  0.44624432     1.01800
H857        H  0.91273221  0.42877276  0.41213748     0.31500
O858        O  0.93180121  0.44709474  0.43071914    -0.99300
H859        H  0.97426018  0.09750573  0.43786660     0.31600
O860        O  0.97436728  0.06846269  0.44926876    -1.01800
O861        O  0.92479975  0.41382750  0.07217294    -0.79100
O862        O  0.61672733  0.03957727  0.49032694    -0.78600
O863        O  0.95901181  0.35479401  0.43335620    -0.77000
O864        O  0.87118715  0.05969553  0.05442372    -0.80400
O865        O  0.99203120  0.13790364  0.01663398    -0.78200
O866        O  0.58221029  0.43480860  0.39262736    -0.76900
O867        O  0.55519053  0.39913054  0.03799882    -0.78400
O868        O  0.52285702  0.02066243  0.11322924    -0.80300
O869        O  0.54534963  0.37190213  0.46616134    -0.77100
O870        O  0.96902407  0.07696543  0.10035817    -0.79800
O871        O  0.90234104  0.37124931  0.47989293    -0.75500
O872        O  0.60264924  0.50649147  0.40520663    -0.75500
O873        O  0.55037237  0.12135566  0.47247706    -0.75200
O874        O  0.85159694  0.48774216  0.04712211    -0.78700
O875        O  0.99420928  0.43323641  0.09569132    -0.78100
O876        O  0.60104206  0.49432632  0.04819291    -0.76400
Eu877      Eu  0.90649545  0.45134567  0.00313329     2.39800
Eu878      Eu  0.54573046  0.04448822  0.44852482     2.39600
Eu879      Eu  0.00610795  0.42406566  0.42589104     2.38400
Eu880      Eu  0.94709897  0.06999963  0.02308047     2.39900
Eu881      Eu  0.52431317  0.47478428  0.04555669     2.39800
O882        O  0.52189204  0.04728600  0.02218265    -0.90800
O883        O  0.98002853  0.43061844  0.99778394    -0.89700
C884        C  0.95786362  0.41343917  0.09939227     1.04300
C885        C  0.62751178  0.01855298  0.02429414     1.03100
C886        C  0.92390885  0.34402929  0.45493575     1.02500
C887        C  0.84411493  0.02704035  0.05825114     1.04500
C888        C  0.52862402  0.14759886  0.49830711     1.03400
C889        C  0.61002416  0.46733084  0.39041840     1.02200
C890        C  0.55706639  0.36930571  0.00667442     1.02300
C891        C  0.99559503  0.05582761  0.12517319     1.04900
H892        H  0.58043204  0.45963210  0.47120842     0.32300
O893        O  0.55081886  0.47113183  0.47103035    -1.03000
H894        H  0.94028669  0.49829236  0.07850801     0.34300
O895        O  0.95028200  0.49874340  0.04868306    -1.05500
C896        C  0.72630932  0.99984141  0.10207214    -0.00500
O897        O  0.62763375  0.17120036  0.28051272    -0.78100
O898        O  0.71346641  0.29246991  0.09032633    -0.79700
O899        O  0.59184410  0.26953675  0.17610293    -0.76700
O900        O  0.66775050  0.14621858  0.14628887    -0.75100
O901        O  0.73827367  0.12354199  0.15978546    -0.76900
O902        O  0.59971327  0.32419254  0.22923252    -0.77800
O903        O  0.65932244  0.24267270  0.10154736    -0.79100
O904        O  0.60313788  0.18375970  0.21083674    -0.79400
Eu905      Eu  0.65964226  0.22280731  0.17772004     2.39200
O906        O  0.73269458  0.22395521  0.15499547    -0.86900
O907        O  0.65388282  0.24818383  0.25141740    -0.90500
C908        C  0.59921972  0.16793397  0.24851375     1.04200
C909        C  0.68022843  0.26882708  0.07719623     1.04000
C910        C  0.57754792  0.30344702  0.19871401     1.03900
C911        C  0.69897351  0.11709812  0.14541856     1.01800
H912        H  0.66474211  0.31333165  0.16355322     0.31500
O913        O  0.68264217  0.29585410  0.18249432    -0.99300
H914        H  0.69251973  0.15156809  0.22466112     0.31600
O915        O  0.70381813  0.18105928  0.22445889    -1.01800
O916        O  0.82733325  0.33591472  0.17753662    -0.79100
O917        O  0.74102037  0.22544460  0.36833617    -0.78600
O918        O  0.68128553  0.38791845  0.20998489    -0.77000
O919        O  0.80755814  0.18752507  0.12361688    -0.80400
O920        O  0.77060466  0.11423354  0.24669046    -0.78400
O921        O  0.64240149  0.31131309  0.33214696    -0.76900
O922        O  0.78945953  0.35722234  0.30164247    -0.78400
O923        O  0.86151595  0.22945617  0.27974212    -0.80300
O924        O  0.71761426  0.37829401  0.29324565    -0.77100
O925        O  0.85276317  0.17542499  0.22620468    -0.79800
O926        O  0.73297933  0.37337500  0.15737789    -0.75500
O927        O  0.65462353  0.24068391  0.35207344    -0.75500
O928        O  0.72376963  0.13101627  0.30315381    -0.75200
O929        O  0.80023373  0.25918884  0.10510217    -0.78700
O930        O  0.85326783  0.31873002  0.24535951    -0.78100
O931        O  0.79698099  0.27183136  0.35229539    -0.76400
Eu932      Eu  0.75664974  0.29720275  0.15995763     2.39800
Eu933      Eu  0.69997584  0.20697996  0.29727544     2.39600
Eu934      Eu  0.67593999  0.32143867  0.25612469     2.38400
Eu935      Eu  0.77686084  0.18021083  0.19995660     2.39900
Eu936      Eu  0.79613619  0.27921919  0.27551900     2.39800
O937        O  0.77351242  0.20593362  0.27394698    -0.90800
O938        O  0.74958718  0.32142547  0.23244753    -0.89700
C939        C  0.85620866  0.33743686  0.20915802     1.04300
C940        C  0.77336841  0.25173672  0.37915318     1.03100
C941        C  0.70528712  0.39904618  0.17728912     1.02500
C942        C  0.81221466  0.21930108  0.09674425     1.04500
C943        C  0.74891739  0.10420562  0.28130869     1.03400
C944        C  0.63987008  0.27956760  0.35971236     1.02200
C945        C  0.75783485  0.38570183  0.30429698     1.02300
C946        C  0.87513118  0.19534467  0.25703464     1.04900
H947        H  0.72202233  0.29388169  0.32831125     0.32300
O948        O  0.72315422  0.28006461  0.29939043    -1.03000
H949        H  0.83218020  0.25272434  0.19264773     0.34300
O950        O  0.80219578  0.25270403  0.20272946    -1.05500
C951        C  0.60075051  0.25147428  0.47857029    -0.00500
C952        C  0.97583683  0.37781102  0.21603469    -0.00500
C953        C  0.84556112  0.24138299  0.47753093    -0.00500
C954        C  0.72849188  0.49968919  0.35189071    -0.00500
C955        C  0.61938418  0.28628913  0.40389868    -0.14400
C956        C  0.62667260  0.25646851  0.43591745    -0.29600
H957        H  0.59710537  0.31381853  0.40898426     0.14600
H958        H  0.65026773  0.23021140  0.42935155     0.15200
C959        C  0.66275364  0.27288300  0.03187102    -0.14400
C960        C  0.63059423  0.24545278  0.01682385    -0.29600
H961        H  0.67189717  0.30102857  0.01336224     0.14600
H962        H  0.62436804  0.21651646  0.03542264     0.15200
C963        C  0.78547345  0.26339661  0.42462125    -0.14400
C964        C  0.80358229  0.23356077  0.44981809    -0.29600
H965        H  0.79503807  0.29746236  0.42992774     0.14600
H966        H  0.79031608  0.20048424  0.44693848     0.15200
C967        C  0.84113749  0.24468866  0.02678379    -0.14400
C968        C  0.82964042  0.21049032  0.05156712    -0.29600
H969        H  0.84325364  0.27688666  0.04338994     0.14600
H970        H  0.82917553  0.17723905  0.03742039     0.15200
C971        C  0.76686582  0.43007400  0.32245361    -0.14400
C972        C  0.73536415  0.46137513  0.31951266    -0.29600
H973        H  0.79653324  0.43486368  0.34192743     0.14600
H974        H  0.70874231  0.45633425  0.29575087     0.15200
C975        C  0.75317213  0.05910454  0.29829338    -0.14400
C976        C  0.72238121  0.04314067  0.32524529    -0.29600
H977        H  0.78233566  0.03979973  0.29049970     0.14600
H978        H  0.69266361  0.06256423  0.33050534     0.15200
C979        C  0.89532546  0.36317271  0.20504076    -0.14400
C980        C  0.93527245  0.34913712  0.21938197    -0.29600
H981        H  0.89064836  0.39481496  0.19065215     0.14600
H982        H  0.93824171  0.31797751  0.23521787     0.15200
C983        C  0.53418812  0.32278562  0.18731989    -0.14400
C984        C  0.50397497  0.33159333  0.21857466    -0.29600
H985        H  0.53136460  0.33703632  0.15552924     0.14600
H986        H  0.50771595  0.31467840  0.24907270     0.15200
C987        C  0.73122795  0.45939784  0.13230982    -0.14400
C988        C  0.70045512  0.44382131  0.15954501    -0.29600
H989        H  0.76139971  0.44041304  0.12826182     0.14600
H990        H  0.67058369  0.46248916  0.16600451     0.15200
C991        C  0.69032461  0.07275107  0.12687812    -0.14400
C992        C  0.72093489  0.04069033  0.13162276    -0.29600
H993        H  0.66073075  0.06802660  0.10735243     0.14600
H994        H  0.74773384  0.04618203  0.15508914     0.15200
C995        C  0.97115649  0.40609999  0.17690597    -0.14400
C996        C  0.95617638  0.38846132  0.13808256    -0.29600
H997        H  0.98071930  0.44046417  0.17996967     0.14600
H998        H  0.94535566  0.35458366  0.13437561     0.15200
C999        C  0.95019902  0.42965959  0.27879864    -0.14400
C1000       C  0.98127958  0.40405640  0.25944396    -0.29600
H1001       H  0.92025106  0.43775519  0.26116119     0.14600
H1002       H  0.01138009  0.39862545  0.27817816     0.15200
C1003       C  0.65431921  0.46149935  0.37029808    -0.14400
C1004       C  0.68556173  0.49364737  0.37693075    -0.29600
H1005       H  0.66006220  0.43289689  0.34886659     0.14600
H1006       H  0.67873261  0.52051124  0.40040672     0.15200
C1007       C  0.77994388  0.47569280  0.41367137    -0.14400
C1008       C  0.76665083  0.50555146  0.38448752    -0.29600
H1009       H  0.75977574  0.44731364  0.41974538     0.14600
H1010       H  0.78671727  0.53469174  0.38129655     0.15200
C1011       C  0.67374944  0.02037690  0.04020722    -0.14400
C1012       C  0.68717169  0.99239050  0.07108212    -0.29600
H1013       H  0.69429325  0.04777793  0.03181778     0.14600
H1014       H  0.66623650  0.46353212  0.07918815     0.15200
C1015       C  0.76866870  0.00259011  0.07536731    -0.14400
C1016       C  0.80047870  0.03419562  0.07915956    -0.29600
H1017       H  0.77469800  0.97403598  0.05372907     0.14600
H1018       H  0.79556882  0.06415869  0.09885786     0.15200
C1019       C  0.87146744  0.16958320  0.43902671    -0.14400
C1020       C  0.87772299  0.20366539  0.46869542    -0.29600
H1021       H  0.84782474  0.17110964  0.41227959     0.14600
H1022       H  0.90513433  0.20214575  0.49177594     0.15200
C1023       C  0.90680453  0.29719161  0.45293532    -0.14400
C1024       C  0.86712417  0.28707782  0.47093953    -0.29600
H1025       H  0.92719495  0.27134103  0.43839458     0.14600
H1026       H  0.84744979  0.31463462  0.48328381     0.15200
C1027       C  0.54515581  0.19374125  0.50249619    -0.14400
C1028       C  0.57277735  0.20965274  0.47222600    -0.29600
H1029       H  0.53642297  0.21490244  0.03142098     0.14600
H1030       H  0.57806686  0.18966152  0.44243477     0.15200
C1031       C  0.57616936  0.32606042  0.01512507    -0.14400
C1032       C  0.57052058  0.29051561  0.48606065    -0.29600
H1033       H  0.59777797  0.32356726  0.04325155     0.14600
H1034       H  0.54499539  0.29361432  0.46109445     0.15200
C1035       C  0.00043349  0.07208796  0.17173655    -0.14400
C1036       C  0.97255314  0.10244705  0.18970268    -0.29600
H1037       H  0.53613318  0.06274776  0.19122148     0.14600
H1038       H  0.94398018  0.11150343  0.17022590     0.15200
C1039       C  0.01109045  0.08669845  0.29782554    -0.14400
C1040       C  0.97745833  0.09860112  0.27115782    -0.29600
H1041       H  0.04514933  0.09133140  0.28933273     0.14600
H1042       H  0.47862613  0.05809664  0.26979490     0.15200
C1043       C  0.94676548  0.16586788  0.23452809    -0.14400
C1044       C  0.91851228  0.17560938  0.26730901    -0.29600
H1045       H  0.94145169  0.18264675  0.20412500     0.14600
H1046       H  0.92355923  0.16293155  0.29963168     0.15200
C1047       C  0.52080451  0.15259586  0.23467089    -0.14400
C1048       C  0.55989767  0.14246730  0.25402097    -0.29600
H1049       H  0.51865289  0.18090638  0.21425871     0.14600
H1050       H  0.56479910  0.11312403  0.27228175     0.15200
C1051       C  0.48108257  0.12051953  0.73570659    -0.00500
O1052       O  0.52660365  0.08140001  0.87879130    -0.78100
O1053       O  0.83531511  0.45686990  0.96215751    -0.79700
O1054       O  0.92909068  0.48014843  0.83900610    -0.76700
O1055       O  0.89746020  0.10062264  0.91297131    -0.75100
O1056       O  0.90705876  0.12430352  0.98447911    -0.76900
O1057       O  0.98029367  0.42627016  0.84894443    -0.77800
O1058       O  0.84858686  0.50435597  0.90828259    -0.79100
O1059       O  0.96763620  0.05749259  0.84902966    -0.79400
Eu1060     Eu  0.92770367  0.02420850  0.90587895     2.39200
O1061       O  0.90326105  0.02322844  0.97796249    -0.86900
O1062       O  0.99862817  0.50131193  0.90288933    -0.90500
C1063       C  0.00762194  0.06841912  0.84244895     1.04200
C1064       C  0.82284826  0.48008912  0.92971565     1.04000
C1065       C  0.95308493  0.44754106  0.82500596     1.03900
C1066       C  0.89507111  0.13006016  0.94475709     1.01800
H1067       H  0.91037389  0.43257693  0.91095859     0.31500
O1068       O  0.92917370  0.45120531  0.92956873    -0.99300
H1069       H  0.97394005  0.09802288  0.93900562     0.31600
O1070       O  0.97344435  0.06910084  0.95062147    -1.01800
O1071       O  0.92729923  0.41091800  0.57363521    -0.79100
O1072       O  0.61528131  0.04066282  0.99094219    -0.78600
O1073       O  0.95810949  0.35930594  0.93188222    -0.77000
O1074       O  0.87412750  0.05887037  0.55493541    -0.80400
O1075       O  0.99699607  0.13617178  0.51646857    -0.78200
O1076       O  0.57896964  0.43889562  0.89308971    -0.76900
O1077       O  0.55755225  0.39790721  0.53651816    -0.78400
O1078       O  0.52537373  0.01800451  0.61319139    -0.80300
O1079       O  0.54379974  0.37417121  0.96720579    -0.77100
O1080       O  0.97462203  0.07549402  0.59879019    -0.79800
O1081       O  0.90076788  0.37464425  0.97793920    -0.75500
O1082       O  0.59834690  0.51106064  0.90417303    -0.75500
O1083       O  0.54890062  0.12270080  0.97196131    -0.75200
O1084       O  0.85391116  0.48552628  0.54694216    -0.78700
O1085       O  0.99808851  0.42712022  0.59541456    -0.78100
O1086       O  0.60403782  0.49344391  0.54575280    -0.76400
Eu1087     Eu  0.90933333  0.44790285  0.50432053     2.39800
Eu1088     Eu  0.54466371  0.04546337  0.94862562     2.39600
Eu1089     Eu  0.00370259  0.42883322  0.92519136     2.38400
Eu1090     Eu  0.94990924  0.06896701  0.52246311     2.39900
Eu1091     Eu  0.52755214  0.47356302  0.54330895     2.39800
O1092       O  0.52382186  0.04592273  0.52235061    -0.90800
O1093       O  0.98293177  0.42704440  0.49871860    -0.89700
C1094       C  0.96094507  0.40912386  0.59999065     1.04300
C1095       C  0.62926039  0.01712150  0.52334668     1.03100
C1096       C  0.92307820  0.34796688  0.95300613     1.02500
C1097       C  0.84650047  0.02653930  0.55838134     1.04500
C1098       C  0.52725784  0.14907915  0.99781544     1.03400
C1099       C  0.60607168  0.47176959  0.88972753     1.02200
C1100       C  0.55891014  0.36766884  0.50564550     1.02300
C1101       C  0.00138188  0.05414510  0.62320761     1.04900
H1102       H  0.57799120  0.46198975  0.97274201     0.32300
O1103       O  0.54828263  0.47318102  0.97317899    -1.03000
H1104       H  0.94368082  0.49416620  0.57942448     0.34300
O1105       O  0.95390828  0.49473145  0.54968928    -1.05500
C1106       C  0.72831013  0.99945279  0.60152169    -0.00500
O1107       O  0.62840525  0.16880263  0.78047341    -0.78100
O1108       O  0.71521977  0.29025196  0.59115611    -0.79700
O1109       O  0.58890430  0.26069945  0.68414754    -0.76700
O1110       O  0.66999054  0.14565215  0.64605827    -0.75100
O1111       O  0.74046617  0.12331363  0.66024735    -0.76900
O1112       O  0.60090439  0.31892927  0.73217494    -0.77800
O1113       O  0.65914114  0.24284029  0.60305045    -0.79100
O1114       O  0.60507440  0.17964876  0.71006159    -0.79400
Eu1115     Eu  0.66074145  0.22122670  0.67882314     2.39200
O1116       O  0.73389460  0.22295321  0.65628862    -0.86900
O1117       O  0.65574437  0.24708792  0.75225300    -0.90500
C1118       C  0.60051898  0.16456348  0.74795757     1.04200
C1119       C  0.68116074  0.26767109  0.57825823     1.04000
C1120       C  0.57582736  0.29517170  0.70652859     1.03900
C1121       C  0.70140109  0.11683163  0.64512645     1.01800
H1122       H  0.66424124  0.31232510  0.66428000     0.31500
O1123       O  0.68258808  0.29497580  0.68306276    -0.99300
H1124       H  0.69399945  0.14997430  0.72548450     0.31600
O1125       O  0.70491669  0.17962206  0.72568491    -1.01800
O1126       O  0.82765819  0.33513922  0.67933261    -0.79100
O1127       O  0.74033235  0.22295692  0.87057208    -0.78600
O1128       O  0.68300339  0.38737285  0.71059436    -0.77000
O1129       O  0.81208615  0.18823967  0.62728006    -0.80400
O1130       O  0.77267180  0.11387145  0.74830764    -0.78400
O1131       O  0.64317798  0.31115293  0.83217911    -0.76900
O1132       O  0.78841482  0.35722974  0.80468780    -0.78400
O1133       O  0.86791480  0.23595998  0.77362098    -0.80300
O1134       O  0.71654292  0.37766349  0.79515038    -0.77100
O1135       O  0.85480539  0.17799014  0.72558496    -0.79800
O1136       O  0.73426993  0.37272795  0.65773147    -0.75500
O1137       O  0.65381663  0.24019892  0.85188590    -0.75500
O1138       O  0.72490130  0.12996017  0.80413651    -0.75200
O1139       O  0.80297520  0.25959960  0.60854853    -0.78700
O1140       O  0.85261964  0.32138776  0.74848690    -0.78100
O1141       O  0.79826448  0.26748155  0.85567634    -0.76400
Eu1142     Eu  0.75700481  0.29653612  0.66168783     2.39800
Eu1143     Eu  0.70065588  0.20562553  0.79852782     2.39600
Eu1144     Eu  0.67740538  0.32039437  0.75682410     2.38400
Eu1145     Eu  0.77815630  0.17994873  0.70198057     2.39900
Eu1146     Eu  0.79735758  0.27906983  0.77850615     2.39800
O1147       O  0.77488777  0.20533953  0.77626951    -0.90800
O1148       O  0.75108166  0.32083601  0.73434866    -0.89700
C1149       C  0.85604513  0.33823002  0.71132855     1.04300
C1150       C  0.77350380  0.24787081  0.88217217     1.03100
C1151       C  0.70686592  0.39857348  0.67773013     1.02500
C1152       C  0.81645967  0.22018278  0.60057990     1.04500
C1153       C  0.75041221  0.10346107  0.78238638     1.03400
C1154       C  0.63969191  0.27937821  0.85946704     1.02200
C1155       C  0.75648039  0.38548855  0.80669041     1.02300
C1156       C  0.88040218  0.20110330  0.75125156     1.04900
H1157       H  0.72276058  0.29232235  0.83028887     0.32300
O1158       O  0.72400212  0.27892435  0.80117222    -1.03000
H1159       H  0.83168132  0.25338911  0.69515946     0.34300
O1160       O  0.80183286  0.25275708  0.70553818    -1.05500
C1161       C  0.59952435  0.25284063  0.97802498    -0.00500
C1162       C  0.97574535  0.37874877  0.71802186    -0.00500
C1163       C  0.84981810  0.24328951  0.97730513    -0.00500
C1164       C  0.72561740  0.50082062  0.85090731    -0.00500
C1165       C  0.61894782  0.28668165  0.90334103    -0.14400
C1166       C  0.62571660  0.25711920  0.93554576    -0.29600
H1167       H  0.59710302  0.31460242  0.90813518     0.14600
H1168       H  0.64901447  0.23051766  0.92926934     0.15200
C1169       C  0.66420038  0.27134013  0.53260808    -0.14400
C1170       C  0.63177837  0.24416974  0.51756171    -0.29600
H1171       H  0.67405877  0.29899614  0.51375084     0.14600
H1172       H  0.62505209  0.21562330  0.53656253     0.15200
C1173       C  0.78392168  0.25973866  0.92835445    -0.14400
C1174       C  0.80593563  0.23195652  0.95336920    -0.29600
H1175       H  0.78991461  0.29455770  0.93385233     0.14600
H1176       H  0.79611871  0.19768899  0.95069710     0.15200
C1177       C  0.82980203  0.24226294  0.52499048    -0.14400
C1178       C  0.83659196  0.21234408  0.55648870    -0.29600
H1179       H  0.80866924  0.27025390  0.53301796     0.14600
H1180       H  0.85473008  0.18219824  0.54957835     0.15200
C1181       C  0.76468133  0.43028597  0.82419033    -0.14400
C1182       C  0.73277560  0.46115188  0.82020484    -0.29600
H1183       H  0.79431607  0.43596945  0.84347775     0.14600
H1184       H  0.70647101  0.45525255  0.79626701     0.15200
C1185       C  0.75406889  0.05816612  0.79868520    -0.14400
C1186       C  0.72214484  0.04191098  0.82410247    -0.29600
H1187       H  0.78371703  0.03917053  0.79211153     0.14600
H1188       H  0.69210945  0.06111872  0.82813715     0.15200
C1189       C  0.89544401  0.36325698  0.70598680    -0.14400
C1190       C  0.93511991  0.35023222  0.72205466    -0.29600
H1191       H  0.89111544  0.39352337  0.68898712     0.14600
H1192       H  0.93761336  0.32071897  0.74072133     0.15200
C1193       C  0.52893659  0.30951205  0.70375832    -0.14400
C1194       C  0.51986011  0.35238911  0.71205767    -0.29600
H1195       H  0.50300583  0.28580595  0.69669131     0.14600
H1196       H  0.54782923  0.37463072  0.71493692     0.15200
C1197       C  0.73284264  0.45875955  0.63197917    -0.14400
C1198       C  0.70229600  0.44352695  0.65983166    -0.29600
H1199       H  0.76261281  0.43926468  0.62742545     0.14600
H1200       H  0.67284951  0.46266573  0.66685781     0.15200
C1201       C  0.69300267  0.07282331  0.62565395    -0.14400
C1202       C  0.72288864  0.04028725  0.63110971    -0.29600
H1203       H  0.66394652  0.06867357  0.60523451     0.14600
H1204       H  0.74925361  0.04545851  0.65511878     0.15200
C1205       C  0.97147118  0.40543275  0.67789190    -0.14400
C1206       C  0.95863419  0.38558860  0.63939284    -0.29600
H1207       H  0.97927443  0.44028126  0.67995403     0.14600
H1208       H  0.94941680  0.35117771  0.63675075     0.15200
C1209       C  0.94900240  0.43234032  0.77845603    -0.14400
C1210       C  0.98059888  0.40647275  0.76041403    -0.29600
H1211       H  0.91923475  0.43965576  0.76017344     0.14600
H1212       H  0.01050922  0.40180059  0.77969598     0.15200
C1213       C  0.64998672  0.46554051  0.86889592    -0.14400
C1214       C  0.68203118  0.49676213  0.87543027    -0.29600
H1215       H  0.65517490  0.43660744  0.84776740     0.14600
H1216       H  0.67550198  0.52420302  0.89832225     0.15200
C1217       C  0.77661613  0.47835884  0.91357196    -0.14400
C1218       C  0.76325726  0.50764486  0.88391851    -0.29600
H1219       H  0.75663392  0.44991632  0.91991361     0.14600
H1220       H  0.78317504  0.53684381  0.88045169     0.15200
C1221       C  0.67555095  0.01925214  0.53927745    -0.14400
C1222       C  0.68906751  0.99177229  0.57058870    -0.29600
H1223       H  0.69605048  0.04653638  0.53047701     0.14600
H1224       H  0.66823029  0.46364695  0.57858311     0.15200
C1225       C  0.77066862  0.00253616  0.57483097    -0.14400
C1226       C  0.80278825  0.03387972  0.57921779    -0.29600
H1227       H  0.77651911  0.97425982  0.55278519     0.14600
H1228       H  0.79813463  0.06353567  0.59945740     0.15200
C1229       C  0.87714865  0.17384514  0.93658348    -0.14400
C1230       C  0.88341901  0.20724073  0.96692565    -0.29600
H1231       H  0.85431786  0.17673288  0.90928941     0.14600
H1232       H  0.91008387  0.20454886  0.99076199     0.15200
C1233       C  0.90751469  0.30085381  0.95063282    -0.14400
C1234       C  0.86765310  0.28962915  0.96715412    -0.29600
H1235       H  0.92986555  0.27556117  0.93828611     0.14600
H1236       H  0.84634880  0.31654689  0.97798345     0.15200
C1237       C  0.54386907  0.19520262  0.00203341    -0.14400
C1238       C  0.57128565  0.21117987  0.97167979    -0.29600
H1239       H  0.53745370  0.21353370  0.53175806     0.14600
H1240       H  0.57631324  0.19121739  0.94181199     0.15200
C1241       C  0.57783807  0.32472901  0.51481658    -0.14400
C1242       C  0.56973839  0.29243334  0.98530417    -0.29600
H1243       H  0.60025037  0.32298857  0.54238304     0.14600
H1244       H  0.54479947  0.29606584  0.95987135     0.15200
C1245       C  0.00660760  0.07042822  0.66956221    -0.14400
C1246       C  0.97593756  0.09705877  0.68849213    -0.29600
H1247       H  0.53735462  0.05958122  0.69188701     0.14600
H1248       H  0.94640176  0.10380297  0.66937493     0.15200
C1249       C  0.01738458  0.08334622  0.79852776    -0.14400
C1250       C  0.98459504  0.08693019  0.76859159    -0.29600
H1251       H  0.05039832  0.09459062  0.79285017     0.14600
H1252       H  0.47839708  0.05593472  0.76926113     0.15200
C1253       C  0.93668852  0.14385616  0.74167170    -0.14400
C1254       C  0.92735398  0.18614846  0.75327020    -0.29600
H1255       H  0.90870474  0.12187782  0.73685218     0.14600
H1256       H  0.95330694  0.20938352  0.76187018     0.15200
C1257       C  0.52152626  0.15021062  0.73434555    -0.14400
C1258       C  0.56083334  0.13920968  0.75309305    -0.29600
H1259       H  0.51941254  0.17908059  0.71471230     0.14600
H1260       H  0.56540929  0.10941639  0.77075258     0.15200
C1261       C  0.48293854  0.62846349  0.23432236    -0.00500
O1262       O  0.53700845  0.56991320  0.37239036    -0.78100
O1263       O  0.83788664  0.95672610  0.46096641    -0.79700
O1264       O  0.93070354  0.97624138  0.33679867    -0.76700
O1265       O  0.89662607  0.59588410  0.41947401    -0.75100
O1266       O  0.91017781  0.62179619  0.48967215    -0.76900
O1267       O  0.98013247  0.92076057  0.34754786    -0.77800
O1268       O  0.85148843  0.00332454  0.40623361    -0.79100
O1269       O  0.95788214  0.56138301  0.35579183    -0.79400
Eu1270     Eu  0.92837027  0.52038554  0.41067116     2.39200
O1271       O  0.90522214  0.52076679  0.48292556    -0.86900
O1272       O  0.00101016  0.99680457  0.40194036    -0.90500
C1273       C  0.99458129  0.58043420  0.35209169     1.04200
C1274       C  0.82556988  0.97984752  0.42839171     1.04000
C1275       C  0.95352764  0.94253264  0.32328167     1.03900
C1276       C  0.89568095  0.62614566  0.45051113     1.01800
H1277       H  0.91182273  0.93041905  0.40984009     0.31500
O1278       O  0.93098969  0.94899518  0.42794297    -0.99300
H1279       H  0.97428677  0.59495350  0.44379484     0.31600
O1280       O  0.97441246  0.56571932  0.45467730    -1.01800
O1281       O  0.92510099  0.91296293  0.07060224    -0.79100
O1282       O  0.61856574  0.53897156  0.49050256    -0.78600
O1283       O  0.95922700  0.85517403  0.43373059    -0.77000
O1284       O  0.87110496  0.55983048  0.05852181    -0.80400
O1285       O  0.99208910  0.63941480  0.02025735    -0.78200
O1286       O  0.58129806  0.93713889  0.39209846    -0.76900
O1287       O  0.55681044  0.89937737  0.03623789    -0.78400
O1288       O  0.51976678  0.52048820  0.11495659    -0.80300
O1289       O  0.54729300  0.87287896  0.46483671    -0.77100
O1290       O  0.97188464  0.57714874  0.10240583    -0.79800
O1291       O  0.90258917  0.87214148  0.48004241    -0.75500
O1292       O  0.60010888  0.00947803  0.40330548    -0.75500
O1293       O  0.55240344  0.62168089  0.46990012    -0.75200
O1294       O  0.85209769  0.98733715  0.04514877    -0.78700
O1295       O  0.99412059  0.93262344  0.09500466    -0.78100
O1296       O  0.60167043  0.99495197  0.04631114    -0.76400
Eu1297     Eu  0.90726030  0.95083247  0.00147192     2.39800
Eu1298     Eu  0.54829831  0.54377126  0.44798607     2.39600
Eu1299     Eu  0.00487703  0.92420050  0.42394767     2.38400
Eu1300     Eu  0.94625732  0.57109761  0.02605321     2.39900
Eu1301     Eu  0.52538722  0.97472621  0.04370807     2.39800
O1302       O  0.52147892  0.54756399  0.02393443    -0.90800
O1303       O  0.98047925  0.92917749  0.99758738    -0.89700
C1304       C  0.95796174  0.91252647  0.09810154     1.04300
C1305       C  0.62715344  0.51739505  0.02584273     1.03100
C1306       C  0.92468123  0.84454739  0.45595546     1.02500
C1307       C  0.84391004  0.52713797  0.06137926     1.04500
C1308       C  0.53122127  0.64807443  0.49620184     1.03400
C1309       C  0.60832695  0.97017000  0.38923398     1.02200
C1310       C  0.55762360  0.86907610  0.00533340     1.02300
C1311       C  0.99987537  0.55632850  0.12604750     1.04900
H1312       H  0.57988352  0.96083912  0.47046764     0.32300
O1313       O  0.55007303  0.97177229  0.47074173    -1.03000
H1314       H  0.93992965  0.99790335  0.07652540     0.34300
O1315       O  0.95060428  0.99814074  0.04694386    -1.05500
C1316       C  0.72596973  0.49956813  0.10389998    -0.00500
O1317       O  0.62444730  0.68508460  0.28880279    -0.78100
O1318       O  0.71415160  0.79218981  0.09011543    -0.79700
O1319       O  0.59000605  0.76142054  0.18393121    -0.76700
O1320       O  0.66876814  0.64607928  0.14696697    -0.75100
O1321       O  0.73957565  0.62387651  0.15972474    -0.76900
O1322       O  0.60144984  0.81975679  0.23212298    -0.77800
O1323       O  0.65951340  0.74328339  0.10245570    -0.79100
O1324       O  0.60554459  0.68718823  0.21632148    -0.79400
Eu1325     Eu  0.66182076  0.72186061  0.17863746     2.39200
O1326       O  0.73444813  0.72345823  0.15547593    -0.86900
O1327       O  0.65957364  0.74867040  0.25135992    -0.90500
C1328       C  0.59683733  0.68066354  0.25623823     1.04200
C1329       C  0.68052660  0.76892313  0.07754814     1.04000
C1330       C  0.57659622  0.79568675  0.20646914     1.03900
C1331       C  0.70012080  0.61730253  0.14561696     1.01800
H1332       H  0.66410593  0.81282683  0.16356647     0.31500
O1333       O  0.68282368  0.79577123  0.18230639    -0.99300
H1334       H  0.69382530  0.65038283  0.22638531     0.31600
O1335       O  0.70539748  0.67977255  0.22595676    -1.01800
O1336       O  0.82755970  0.83603070  0.17523441    -0.79100
O1337       O  0.74613797  0.72669351  0.36840416    -0.78600
O1338       O  0.68258349  0.88866388  0.20966663    -0.77000
O1339       O  0.81259364  0.68795241  0.12644994    -0.80400
O1340       O  0.77257869  0.61459271  0.24905113    -0.78400
O1341       O  0.64470070  0.81240189  0.33175571    -0.76900
O1342       O  0.79013285  0.85903343  0.30156712    -0.78400
O1343       O  0.86857480  0.73870590  0.27059324    -0.80300
O1344       O  0.71797348  0.87915329  0.29422051    -0.77100
O1345       O  0.85542453  0.67886031  0.22490863    -0.79800
O1346       O  0.73308067  0.87351546  0.15616917    -0.75500
O1347       O  0.65908853  0.74263940  0.35307917    -0.75500
O1348       O  0.72416201  0.63081423  0.30431685    -0.75200
O1349       O  0.80224054  0.75911379  0.10744810    -0.78700
O1350       O  0.85284155  0.82186558  0.24408215    -0.78100
O1351       O  0.80263101  0.77184711  0.35103216    -0.76400
Eu1352     Eu  0.75668181  0.79743031  0.15976833     2.39800
Eu1353     Eu  0.70322866  0.70782267  0.29865805     2.39600
Eu1354     Eu  0.67837996  0.82211191  0.25599306     2.38400
Eu1355     Eu  0.77850889  0.68009241  0.20119873     2.39900
Eu1356     Eu  0.79803290  0.78112036  0.27482731     2.39800
O1357       O  0.77673641  0.70721268  0.27492206    -0.90800
O1358       O  0.75161896  0.82358647  0.23184243    -0.89700
C1359       C  0.85611706  0.83860970  0.20704578     1.04300
C1360       C  0.77929760  0.75218669  0.37840020     1.03100
C1361       C  0.70592855  0.89950656  0.17638651     1.02500
C1362       C  0.81649334  0.71994996  0.09971098     1.04500
C1363       C  0.75007007  0.60420079  0.28309839     1.03400
C1364       C  0.64308239  0.78109448  0.35982138     1.02200
C1365       C  0.75812984  0.88705850  0.30486361     1.02300
C1366       C  0.88101276  0.70309016  0.24962548     1.04900
H1367       H  0.72526723  0.79512232  0.32894819     0.32300
O1368       O  0.72582569  0.78127086  0.30004826    -1.03000
H1369       H  0.83149883  0.75378613  0.19207223     0.34300
O1370       O  0.80175753  0.75325074  0.20274613    -1.05500
C1371       C  0.60291363  0.75207118  0.47738130    -0.00500
C1372       C  0.97599823  0.87550231  0.21429827    -0.00500
C1373       C  0.84944944  0.74050879  0.47908946    -0.00500
C1374       C  0.72732060  0.00133085  0.35131489    -0.00500
C1375       C  0.62218442  0.78766615  0.40361898    -0.14400
C1376       C  0.62912919  0.75745412  0.43525246    -0.29600
H1377       H  0.59983710  0.81514299  0.40866606     0.14600
H1378       H  0.65268336  0.73112967  0.42877932     0.15200
C1379       C  0.66306352  0.77279219  0.03216232    -0.14400
C1380       C  0.63106328  0.74528061  0.01705036    -0.29600
H1381       H  0.67237417  0.80076390  0.01347511     0.14600
H1382       H  0.62480009  0.71652902  0.03591259     0.15200
C1383       C  0.79259522  0.76355925  0.42353507    -0.14400
C1384       C  0.80882240  0.73327015  0.44936604    -0.29600
H1385       H  0.80319928  0.79733329  0.42867219     0.14600
H1386       H  0.79487504  0.70049439  0.44604549     0.15200
C1387       C  0.83115083  0.74378707  0.02518191    -0.14400
C1388       C  0.83692565  0.71272242  0.05575562    -0.29600
H1389       H  0.81074357  0.77215747  0.03373610     0.14600
H1390       H  0.85419850  0.68222291  0.04809008     0.15200
C1391       C  0.76651265  0.93155840  0.32297206    -0.14400
C1392       C  0.73450822  0.96237956  0.31976931    -0.29600
H1393       H  0.79621561  0.93691054  0.34224390     0.14600
H1394       H  0.70801189  0.95677385  0.29597582     0.15200
C1395       C  0.75437105  0.55889748  0.30000764    -0.14400
C1396       C  0.72367135  0.54234766  0.32680142    -0.29600
H1397       H  0.78350008  0.53966915  0.29189754     0.14600
H1398       H  0.69401796  0.56172611  0.33254021     0.15200
C1399       C  0.89564836  0.86290599  0.20236127    -0.14400
C1400       C  0.93510992  0.84739426  0.21651213    -0.29600
H1401       H  0.89165084  0.89495514  0.18865345     0.14600
H1402       H  0.93723855  0.81584455  0.23175276     0.15200
C1403       C  0.52949345  0.80932777  0.20371103    -0.14400
C1404       C  0.51994857  0.85231240  0.21009206    -0.29600
H1405       H  0.50380193  0.78502932  0.19828211     0.14600
H1406       H  0.54772050  0.87487057  0.21160898     0.15200
C1407       C  0.73137111  0.95940277  0.13029947    -0.14400
C1408       C  0.70106557  0.94426157  0.15836491    -0.29600
H1409       H  0.76112682  0.93992286  0.12552932     0.14600
H1410       H  0.67168549  0.96342051  0.16563704     0.15200
C1411       C  0.69107773  0.57320360  0.12698964    -0.14400
C1412       C  0.72039209  0.54044070  0.13329236    -0.29600
H1413       H  0.66207567  0.56914183  0.10649057     0.14600
H1414       H  0.74651361  0.54565485  0.15757476     0.15200
C1415       C  0.97224801  0.90394933  0.17522000    -0.14400
C1416       C  0.95666281  0.88691809  0.13630602    -0.29600
H1417       H  0.98207142  0.93821623  0.17866072     0.14600
H1418       H  0.94548620  0.85318246  0.13218655     0.15200
C1419       C  0.94900392  0.92712665  0.27670025    -0.14400
C1420       C  0.98046444  0.90147348  0.25797408    -0.29600
H1421       H  0.91944312  0.93530745  0.25849938     0.14600
H1422       H  0.01017325  0.89597597  0.27729776     0.15200
C1423       C  0.65268359  0.96429956  0.36935302    -0.14400
C1424       C  0.68427466  0.99592872  0.37640556    -0.29600
H1425       H  0.65832488  0.93564583  0.34797124     0.14600
H1426       H  0.67741651  0.02290908  0.39974579     0.15200
C1427       C  0.77912224  0.97878008  0.41304197    -0.14400
C1428       C  0.76554229  0.00814505  0.38361860    -0.29600
H1429       H  0.75889474  0.95064985  0.41985895     0.14600
H1430       H  0.78568731  0.03710257  0.37963012     0.15200
C1431       C  0.67353410  0.51894052  0.04144433    -0.14400
C1432       C  0.68685533  0.49160096  0.07288605    -0.29600
H1433       H  0.69428661  0.54594523  0.03240159     0.14600
H1434       H  0.66672992  0.96405454  0.07687385     0.15200
C1435       C  0.76838437  0.50255961  0.07748581    -0.14400
C1436       C  0.80033621  0.53392525  0.08227272    -0.29600
H1437       H  0.77440659  0.47432195  0.05543317     0.14600
H1438       H  0.79555227  0.56346547  0.10263852     0.15200
C1439       C  0.87634553  0.66908434  0.44176806    -0.14400
C1440       C  0.88238937  0.70343572  0.47095283    -0.29600
H1441       H  0.85353456  0.67057076  0.41433565     0.14600
H1442       H  0.90923756  0.70200979  0.49470854     0.15200
C1443       C  0.90897590  0.79747042  0.45516492    -0.14400
C1444       C  0.87059944  0.78652486  0.47482809    -0.29600
H1445       H  0.92894660  0.77215585  0.43912718     0.14600
H1446       H  0.85100112  0.81348237  0.48863624     0.15200
C1447       C  0.54780248  0.69408693  0.50061247    -0.14400
C1448       C  0.57485058  0.71047515  0.47025219    -0.29600
H1449       H  0.53725921  0.71535232  0.03254095     0.14600
H1450       H  0.57966825  0.69102225  0.44003288     0.15200
C1451       C  0.57682030  0.82595316  0.01406126    -0.14400
C1452       C  0.57286830  0.79125238  0.48510730    -0.29600
H1453       H  0.59835824  0.82373756  0.04226634     0.14600
H1454       H  0.54692173  0.79421750  0.46054906     0.15200
C1455       C  0.00624623  0.57237707  0.17246451    -0.14400
C1456       C  0.97609562  0.59892511  0.19212399    -0.29600
H1457       H  0.53076207  0.56039638  0.19326163     0.14600
H1458       H  0.94644837  0.60601251  0.17329851     0.15200
C1459       C  0.99595754  0.60738540  0.31481010    -0.14400
C1460       C  0.98514733  0.59119935  0.27422851    -0.29600
H1461       H  0.00308724  0.64199883  0.32101170     0.14600
H1462       H  0.44602954  0.59051931  0.28207363     0.15200
C1463       C  0.93707083  0.64557235  0.24498319    -0.14400
C1464       C  0.92789950  0.68853018  0.25253992    -0.29600
H1465       H  0.90914943  0.62323331  0.24268494     0.14600
H1466       H  0.95391818  0.71243108  0.25824347     0.15200
C1467       C  0.52801786  0.64864604  0.23019366    -0.14400
C1468       C  0.55103866  0.66850251  0.26352067    -0.29600
H1469       H  0.54386953  0.64370892  0.19866359     0.14600
H1470       H  0.53706861  0.67341091  0.29587236     0.15200
C1471       C  0.48363823  0.62163888  0.73589573    -0.00500
O1472       O  0.52754685  0.58229645  0.88036314    -0.78100
O1473       O  0.83690091  0.95721323  0.96033646    -0.79700
O1474       O  0.92953872  0.97840962  0.83689315    -0.76700
O1475       O  0.89237100  0.59910512  0.91699080    -0.75100
O1476       O  0.90443536  0.62436324  0.98766098    -0.76900
O1477       O  0.97984945  0.92384055  0.84809633    -0.77800
O1478       O  0.85052564  0.00501923  0.90660868    -0.79100
O1479       O  0.95417011  0.56672802  0.85374789    -0.79400
Eu1480     Eu  0.92501946  0.52433021  0.90884722     2.39200
O1481       O  0.90160312  0.52415690  0.98123252    -0.86900
O1482       O  0.00042497  0.99896457  0.90421430    -0.90500
C1483       C  0.99110606  0.58565809  0.85031329     1.04200
C1484       C  0.82466055  0.98076809  0.92815770     1.04000
C1485       C  0.95303691  0.94511373  0.82358705     1.03900
C1486       C  0.89062900  0.62895359  0.94828243     1.01800
H1487       H  0.91102537  0.93227864  0.90940561     0.31500
O1488       O  0.92995811  0.95079639  0.92784511    -0.99300
H1489       H  0.97008593  0.59924935  0.94252374     0.31600
O1490       O  0.97046873  0.56996724  0.95328007    -1.01800
O1491       O  0.92689101  0.91292395  0.57163603    -0.79100
O1492       O  0.61509357  0.53942298  0.99237928    -0.78600
O1493       O  0.95759310  0.85697357  0.93229746    -0.77000
O1494       O  0.87436073  0.55736709  0.55811223    -0.80400
O1495       O  0.99672978  0.63517622  0.52142309    -0.78200
O1496       O  0.58024464  0.93751576  0.89265731    -0.76900
O1497       O  0.55916556  0.89841052  0.53541049    -0.78400
O1498       O  0.52605824  0.51946458  0.61255693    -0.80300
O1499       O  0.54332760  0.87343569  0.96611542    -0.77100
O1500       O  0.97463898  0.57178943  0.60433383    -0.79800
O1501       O  0.90058097  0.87383683  0.97812644    -0.75500
O1502       O  0.59937257  0.00973910  0.90382082    -0.75500
O1503       O  0.54921880  0.62266860  0.97402700    -0.75200
O1504       O  0.85391915  0.98685632  0.54491333    -0.78700
O1505       O  0.99710084  0.93023477  0.59418123    -0.78100
O1506       O  0.60361122  0.99309320  0.54514160    -0.76400
Eu1507     Eu  0.90886606  0.94958083  0.50179244     2.39800
Eu1508     Eu  0.54446365  0.54572359  0.95033056     2.39600
Eu1509     Eu  0.00376870  0.92623836  0.92485198     2.38400
Eu1510     Eu  0.95062435  0.56721541  0.52748292     2.39900
Eu1511     Eu  0.52713247  0.97313061  0.54310901     2.39800
O1512       O  0.52548585  0.54608467  0.52147356    -0.90800
O1513       O  0.98180028  0.92674593  0.49686573    -0.89700
C1514       C  0.96027435  0.91157284  0.59843683     1.04300
C1515       C  0.63025450  0.51696555  0.52406004     1.03100
C1516       C  0.92254016  0.84636731  0.95381434     1.02500
C1517       C  0.84651673  0.52516426  0.56070879     1.04500
C1518       C  0.52750189  0.64925835  0.99953347     1.03400
C1519       C  0.60746830  0.97036283  0.88975653     1.02200
C1520       C  0.56116798  0.86855791  0.50422883     1.02300
C1521       C  0.00001283  0.54928878  0.62919341     1.04900
H1522       H  0.57868894  0.96184878  0.97121085     0.32300
O1523       O  0.54892099  0.97294207  0.97136103    -1.03000
H1524       H  0.94282647  0.99696888  0.57645310     0.34300
O1525       O  0.95293879  0.99698740  0.54665008    -1.05500
C1526       C  0.72806012  0.49912397  0.60348433    -0.00500
O1527       O  0.63086341  0.66924191  0.78095693    -0.78100
O1528       O  0.71697468  0.78967399  0.58984474    -0.79700
O1529       O  0.59039573  0.76256192  0.68307740    -0.76700
O1530       O  0.67025124  0.64576285  0.64671085    -0.75100
O1531       O  0.74097796  0.62348312  0.65994225    -0.76900
O1532       O  0.60243312  0.82107912  0.73070683    -0.77800
O1533       O  0.66097534  0.74215570  0.60183866    -0.79100
O1534       O  0.60667821  0.68148914  0.71114844    -0.79400
Eu1535     Eu  0.66202135  0.72190502  0.67812266     2.39200
O1536       O  0.73533193  0.72276929  0.65571502    -0.86900
O1537       O  0.65717916  0.74766173  0.75154897    -0.90500
C1538       C  0.60264735  0.66568847  0.74878422     1.04200
C1539       C  0.68304601  0.76695150  0.57701399     1.04000
C1540       C  0.57730100  0.79729299  0.70516045     1.03900
C1541       C  0.70162164  0.61690163  0.64563760     1.01800
H1542       H  0.66599658  0.81254965  0.66289181     0.31500
O1543       O  0.68429419  0.79531071  0.68182438    -0.99300
H1544       H  0.69534209  0.65078734  0.72503427     0.31600
O1545       O  0.70649837  0.68032749  0.72483138    -1.01800
O1546       O  0.82910024  0.83530965  0.67648893    -0.79100
O1547       O  0.74258759  0.72490109  0.86865265    -0.78600
O1548       O  0.68454860  0.88743218  0.70870851    -0.77000
O1549       O  0.81498011  0.68657146  0.62765332    -0.80400
O1550       O  0.77311976  0.61300448  0.74707917    -0.78400
O1551       O  0.64463492  0.81040894  0.83133948    -0.76900
O1552       O  0.79013304  0.85769730  0.80288651    -0.78400
O1553       O  0.86757762  0.73440625  0.77598839    -0.80300
O1554       O  0.71801979  0.87777122  0.79445019    -0.77100
O1555       O  0.85598794  0.67703029  0.72684664    -0.79800
O1556       O  0.73551532  0.87249475  0.65554543    -0.75500
O1557       O  0.65704847  0.74002696  0.85201838    -0.75500
O1558       O  0.72609139  0.63018170  0.80318903    -0.75200
O1559       O  0.80485560  0.75763921  0.60834167    -0.78700
O1560       O  0.85404845  0.82077417  0.74540288    -0.78100
O1561       O  0.79887375  0.77111128  0.85297886    -0.76400
Eu1562     Eu  0.75863227  0.79628374  0.66010184     2.39800
Eu1563     Eu  0.70275097  0.70625128  0.79747146     2.39600
Eu1564     Eu  0.67879808  0.82094254  0.75552085     2.38400
Eu1565     Eu  0.77974460  0.67959215  0.70140064     2.39900
Eu1566     Eu  0.79860408  0.77966964  0.77618729     2.39800
O1567       O  0.77686298  0.70573521  0.77534598    -0.90800
O1568       O  0.75243839  0.82162935  0.73236687    -0.89700
C1569       C  0.85746790  0.83795462  0.70847149     1.04300
C1570       C  0.77468124  0.75133399  0.87963632     1.03100
C1571       C  0.70814380  0.89841527  0.67557389     1.02500
C1572       C  0.81908694  0.71839261  0.60090412     1.04500
C1573       C  0.75090156  0.60306171  0.78136504     1.03400
C1574       C  0.64190662  0.77885537  0.85914476     1.02200
C1575       C  0.75803009  0.88571946  0.80565386     1.02300
C1576       C  0.88061386  0.69960410  0.75394165     1.04900
H1577       H  0.72414526  0.79338980  0.82803669     0.32300
O1578       O  0.72554816  0.77954317  0.79915418    -1.03000
H1579       H  0.83368204  0.75285619  0.69366354     0.34300
O1580       O  0.80373362  0.75246925  0.70374469    -1.05500
C1581       C  0.60018965  0.75234531  0.97793304    -0.00500
C1582       C  0.97707327  0.87700813  0.71571585    -0.00500
C1583       C  0.84605202  0.74325722  0.97765793    -0.00500
C1584       C  0.72660308  0.00061878  0.85085669    -0.00500
C1585       C  0.62061358  0.78589513  0.90298055    -0.14400
C1586       C  0.62645388  0.75599931  0.93520071    -0.29600
H1587       H  0.59912086  0.81408770  0.90776189     0.14600
H1588       H  0.64930077  0.72899968  0.92901432     0.15200
C1589       C  0.66628782  0.77077537  0.53142979    -0.14400
C1590       C  0.63370028  0.74401417  0.51628949    -0.29600
H1591       H  0.67632747  0.79848989  0.51274377     0.14600
H1592       H  0.62688541  0.71527148  0.53497589     0.15200
C1593       C  0.78530638  0.76383122  0.92515120    -0.14400
C1594       C  0.80372391  0.73469277  0.95080914    -0.29600
H1595       H  0.79418963  0.79810759  0.93010905     0.14600
H1596       H  0.79077983  0.70145256  0.94855138     0.15200
C1597       C  0.83172927  0.73987452  0.52553483    -0.14400
C1598       C  0.83991061  0.71074415  0.55736547    -0.29600
H1599       H  0.80862766  0.76647437  0.53274648     0.14600
H1600       H  0.86024328  0.68185336  0.55142898     0.15200
C1601       C  0.76606162  0.93037941  0.82365470    -0.14400
C1602       C  0.73394293  0.96109272  0.82002360    -0.29600
H1603       H  0.79572685  0.93603991  0.84290200     0.14600
H1604       H  0.70749217  0.95512720  0.79626093     0.15200
C1605       C  0.75386881  0.55772468  0.79801123    -0.14400
C1606       C  0.72198626  0.54225481  0.82405986    -0.29600
H1607       H  0.78297343  0.53802651  0.79105332     0.14600
H1608       H  0.69242546  0.56214045  0.82835429     0.15200
C1609       C  0.89680558  0.86295946  0.70385483    -0.14400
C1610       C  0.93646981  0.84844159  0.71843411    -0.29600
H1611       H  0.89254129  0.89453365  0.68921526     0.14600
H1612       H  0.93900676  0.81732223  0.73442130     0.15200
C1613       C  0.53024909  0.81165441  0.70241742    -0.14400
C1614       C  0.52076063  0.85423277  0.71214980    -0.29600
H1615       H  0.50448855  0.78816812  0.69392401     0.14600
H1616       H  0.54865636  0.87647079  0.71599394     0.15200
C1617       C  0.73355313  0.95885233  0.62968944    -0.14400
C1618       C  0.70319681  0.94326335  0.65752331    -0.29600
H1619       H  0.76345604  0.93959684  0.62498463     0.14600
H1620       H  0.67361530  0.96216855  0.66461812     0.15200
C1621       C  0.69284612  0.57264027  0.62707852    -0.14400
C1622       C  0.72280804  0.54021534  0.63270215    -0.29600
H1623       H  0.66356183  0.56817529  0.60702635     0.14600
H1624       H  0.74930425  0.54562596  0.65652703     0.15200
C1625       C  0.97334980  0.90471408  0.67604609    -0.14400
C1626       C  0.95841112  0.88685116  0.63729501    -0.29600
H1627       H  0.98317182  0.93901582  0.67879781     0.14600
H1628       H  0.94737243  0.85303230  0.63379335     0.15200
C1629       C  0.94905022  0.92939671  0.77705867    -0.14400
C1630       C  0.98102620  0.90400914  0.75883702    -0.29600
H1631       H  0.91934790  0.93672402  0.75868386     0.14600
H1632       H  0.01079897  0.89942184  0.77832274     0.15200
C1633       C  0.65182734  0.96412764  0.86976927    -0.14400
C1634       C  0.68334711  0.99596074  0.87583267    -0.29600
H1635       H  0.65760860  0.93490953  0.84920292     0.14600
H1636       H  0.67639137  0.02359535  0.89835101     0.15200
C1637       C  0.77835341  0.97905569  0.91269005    -0.14400
C1638       C  0.76453960  0.00811208  0.88325695    -0.29600
H1639       H  0.75852297  0.95059562  0.91936312     0.14600
H1640       H  0.78429071  0.03737672  0.87948187     0.15200
C1641       C  0.67621415  0.51899464  0.54073456    -0.14400
C1642       C  0.68901020  0.49162316  0.57239382    -0.29600
H1643       H  0.69709040  0.54601954  0.53198369     0.14600
H1644       H  0.66864737  0.96351886  0.57673110     0.15200
C1645       C  0.77051571  0.50157443  0.57687718    -0.14400
C1646       C  0.80265801  0.53282560  0.58099598    -0.29600
H1647       H  0.77638968  0.47298895  0.55524261     0.14600
H1648       H  0.79793731  0.56278119  0.60075457     0.15200
C1649       C  0.87156784  0.67189256  0.93954507    -0.14400
C1650       C  0.87858186  0.70616574  0.96854047    -0.29600
H1651       H  0.84822667  0.67355769  0.91254294     0.14600
H1652       H  0.90601927  0.70457858  0.99161030     0.15200
C1653       C  0.90615246  0.79944408  0.95244937    -0.14400
C1654       C  0.86671389  0.78912125  0.97059442    -0.29600
H1655       H  0.92693366  0.77370592  0.93828003     0.14600
H1656       H  0.84665932  0.81650789  0.98267157     0.15200
C1657       C  0.54436315  0.69533544  0.00326307    -0.14400
C1658       C  0.57162667  0.71081967  0.97240667    -0.29600
H1659       H  0.54073173  0.71340217  0.53035450     0.14600
H1660       H  0.57629865  0.69052243  0.94270461     0.15200
C1661       C  0.58100811  0.82591032  0.51307258    -0.14400
C1662       C  0.57052440  0.79208387  0.98453630    -0.29600
H1663       H  0.60415672  0.82457889  0.54006684     0.14600
H1664       H  0.54573915  0.79545039  0.95891283     0.15200
C1665       C  0.00220857  0.56379250  0.67659167    -0.14400
C1666       C  0.99328555  0.60612937  0.68808825    -0.29600
H1667       H  0.53904532  0.56103474  0.69066142     0.14600
H1668       H  0.99057215  0.62866024  0.66141914     0.15200
C1669       C  0.99419694  0.61295331  0.81299116    -0.14400
C1670       C  0.98231990  0.59861562  0.77189679    -0.29600
H1671       H  0.00664559  0.64589026  0.81973227     0.14600
H1672       H  0.48029145  0.55688282  0.76919844     0.15200
C1673       C  0.94412253  0.65494337  0.72947626    -0.14400
C1674       C  0.92667832  0.68337439  0.75980726    -0.29600
H1675       H  0.92450994  0.64817363  0.69994007     0.14600
H1676       H  0.94529503  0.69318458  0.78907796     0.15200
C1677       C  0.52417273  0.65098075  0.73453666    -0.14400
C1678       C  0.56316319  0.64026050  0.75390811    -0.29600
H1679       H  0.52230178  0.67959617  0.71451173     0.14600
H1680       H  0.56767572  0.61070106  0.77193815     0.15200
loop_ 
_geom_bond_atom_site_label_1 
_geom_bond_atom_site_label_2 
_geom_bond_distance 
_geom_bond_site_symmetry_2 
_ccdc_geom_bond_type 
C1          C207   1.515   1_655  S
C1         C1036   1.540       .  S
C1         C1040   1.526       .  S
C1         C1043   1.538       .  S
O2          Eu38   2.500       .  S
O2          C853   1.297       .  A
O3         Eu247   2.492       .  S
O3           C14   1.294       .  A
O4         Eu430   2.496       .  S
O4           C15   1.297       .  A
O5          Eu10   2.505       .  S
O5           C16   1.298       .  A
O6         Eu250   2.382       .  S
O6           C16   1.281       .  A
O7          Eu39   2.439       .  S
O7           C15   1.289       .  A
O8         Eu430   2.417       .  S
O8           C14   1.286       .  A
O9          Eu10   2.338       .  S
O9           C13   1.271       .  A
Eu10        O424   2.498   1_545  S
Eu10        O428   2.399       .  S
Eu10         O20   2.344       .  S
Eu10         O11   2.331       .  S
Eu10        O432   2.353   1_545  S
Eu10        O438   2.345   1_545  S
O11        Eu250   2.360       .  S
O11        Eu667   2.343   1_545  S
O12         Eu39   2.340       .  S
O12        Eu430   2.337       .  S
O12       Eu1298   2.347       .  S
C13         O842   1.298       .  A
C13         C199   1.437       .  S
C14         C167   1.484       .  S
C15         C159   1.489       .  S
C16         C179   1.467       .  S
H17          O18   0.967       .  S
O18         Eu39   2.364       .  S
O18        Eu430   2.358       .  S
O18        Eu247   2.366       .  S
H19          O20   0.964       .  S
O20        Eu878   2.321       .  S
O20        Eu250   2.347       .  S
O21         Eu37   2.509       .  S
O21          C44   1.300       .  A
O22         Eu38   2.511       .  S
O22         C255   1.297       .  A
O23         Eu39   2.582       .  S
O23          C46   1.312       .  A
O24         Eu40   2.540       .  S
O24          C47   1.305       .  A
O25         Eu40   2.527       .  S
O25        C1098   1.303   1_554  A
O26        Eu879   2.570       .  S
O26          C49   1.311       .  A
O27         Eu41   2.486       .  S
O27          C50   1.294       .  A
O28        Eu461   2.503   1_545  S
O28         C891   1.297   1_455  A
O29        Eu879   2.385       .  S
O29         C260   1.282       .  A
O30         Eu40   2.446       .  S
O30          C51   1.291       .  A
O31        Eu247   2.433       .  S
O31          C46   1.287       .  A
O32        Eu458   2.385       .  S
O32          C49   1.281       .  A
O33         Eu38   2.444       .  S
O33          C48   1.290       .  A
O34         Eu37   2.398       .  S
O34         C467   1.283       .  A
O35        Eu881   2.340       .  S
O35          C44   1.271       .  A
O36         Eu41   2.402       .  S
O36         C465   1.283       .  A
Eu37        O213   2.501   1_554  S
Eu37        O241   2.439   1_554  S
Eu37         O55   2.363       .  S
Eu37         O43   2.326   1_554  S
Eu37        O641   2.352   1_554  S
Eu37        O228   2.362   1_554  S
Eu38        O452   2.376       .  S
Eu38       O1272   2.349   1_545  S
Eu38        O860   2.339   1_455  S
Eu38        O252   2.355       .  S
Eu38        O473   2.348   1_545  S
Eu39        O866   2.567       .  S
Eu39        O869   2.386       .  S
Eu39        O893   2.370       .  S
Eu39        O253   2.346       .  S
Eu40        O216   2.399   1_554  S
Eu40        O221   2.360   1_554  S
Eu40        O230   2.348   1_554  S
Eu40        O882   2.366       .  S
Eu40        O475   2.346   1_545  S
Eu41        O448   2.492       .  S
Eu41        O875   2.327   1_455  S
Eu41        O462   2.334       .  S
Eu41        O263   2.331   1_554  S
Eu41        O895   2.352   1_455  S
Eu41        O883   2.340   1_454  S
O42        Eu248   2.359   1_554  S
O42        Eu880   2.371   1_455  S
O42        Eu461   2.333   1_545  S
O43        Eu249   2.343       .  S
O43        Eu881   2.344   1_556  S
C44         C156   1.444       .  S
C45         O232   1.295   1_554  A
C45         O456   1.283   1_545  A
C45         C171   1.485       .  S
C46         C183   1.523       .  S
C47         O454   1.283   1_545  A
C47         C176   1.494       .  S
C48        O1075   1.301   1_455  A
C48         C187   1.494       .  S
C49         C163   1.495       .  S
C50         O239   1.282   1_554  A
C50         C191   1.466       .  S
C51         O868   1.296       .  A
C51         C195   1.494       .  S
H52          O53   0.964       .  S
O53        Eu458   2.351       .  S
O53        Eu879   2.369       .  S
O53        Eu251   2.334       .  S
H54          O55   0.966       .  S
O55        Eu460   2.348       .  S
O55        Eu881   2.353       .  S
C56         C152   1.516   1_565  S
C56         C172   1.526       .  S
C56         C175   1.540   1_565  S
C56         C567   1.540       .  S
O57         Eu93   2.530       .  S
O57          C68   1.301       .  A
O58         Eu92   2.448       .  S
O58          C69   1.287       .  A
O59         Eu65   2.499       .  S
O59          C70   1.296       .  A
O60         Eu65   2.489       .  S
O60          C71   1.295       .  A
O61         Eu95   2.385       .  S
O61          C71   1.281       .  A
O62         Eu94   2.440       .  S
O62          C70   1.291       .  A
O63         Eu65   2.457       .  S
O63          C69   1.292       .  A
O64         Eu65   2.337       .  S
O64          C68   1.273       .  A
Eu65         O75   2.365       .  S
Eu65         O67   2.351       .  S
Eu65         O66   2.323       .  S
Eu65         O73   2.338       .  S
O66         Eu95   2.367       .  S
O66         Eu92   2.352       .  S
O67         Eu93   2.351       .  S
O67         Eu94   2.317       .  S
C68         C208   1.472       .  S
C69         C119   1.479       .  S
C70         C143   1.492       .  S
C71         C151   1.466       .  S
H72          O73   0.968       .  S
O73         Eu94   2.372       .  S
O73         Eu92   2.361       .  S
H74          O75   0.964       .  S
O75         Eu93   2.345       .  S
O75         Eu95   2.355       .  S
O76         Eu92   2.472       .  S
O76          C99   1.286       .  A
O77         Eu93   2.546       .  S
O77         C100   1.305       .  A
O78         Eu94   2.523       .  S
O78         C101   1.302       .  A
O79         Eu95   2.549       .  S
O79         C102   1.306       .  A
O80         Eu95   2.524       .  S
O80         C103   1.302       .  A
O81         Eu94   2.593       .  S
O81         C104   1.315       .  A
O82         Eu96   2.468       .  S
O82         C105   1.291       .  A
O83         Eu96   2.501       .  S
O83         C106   1.297       .  A
O84         Eu94   2.390       .  S
O84         C105   1.283       .  A
O85         Eu95   2.455       .  S
O85         C106   1.294       .  A
O86         Eu92   2.439       .  S
O86         C101   1.290       .  A
O87         Eu93   2.361       .  S
O87         C104   1.276       .  A
O88         Eu93   2.453       .  S
O88         C103   1.291       .  A
O89         Eu92   2.385       .  S
O89         C102   1.281       .  A
O90         Eu96   2.376       .  S
O90          C99   1.267       .  A
O91         Eu96   2.358       .  S
O91         C100   1.273       .  A
Eu92        O110   2.360       .  S
Eu92         O98   2.327       .  S
Eu93         O97   2.359       .  S
Eu93        O108   2.344       .  S
Eu94        O108   2.340       .  S
Eu94         O98   2.358       .  S
Eu95         O97   2.367       .  S
Eu95        O110   2.325       .  S
Eu96         O97   2.360       .  S
Eu96        O108   2.345       .  S
Eu96        O110   2.336       .  S
Eu96         O98   2.336       .  S
C99         C139   1.458       .  S
C100        C123   1.466       .  S
C101        C148   1.497       .  S
C102        C128   1.494       .  S
C103        C135   1.499       .  S
C104        C115   1.501       .  S
C105        C131   1.462       .  S
C106        C204   1.495       .  S
H107        O108   0.963       .  S
H109        O110   0.963       .  S
C111        C116   1.543       .  S
C111        C188   1.539       .  S
C111        C192   1.512       .  S
C111        C330   1.533       .  S
C112        C140   1.519       .  S
C112        C155   1.528       .  S
C112        C160   1.540       .  S
C112        C984   1.540       .  S
C113        C124   1.533       .  S
C113        C180   1.520       .  S
C113        C184   1.566       .  S
C113        C337   1.535       .  S
C114        C132   1.512       .  S
C114        C164   1.539       .  S
C114        C168   1.528       .  S
C114        C556   1.534       .  S
C115        C116   1.381       .  D
C115        H117   1.084       .  S
C116        H118   1.087       .  S
C119        C120   1.344       .  D
C119        H121   1.087       .  S
C120        C321   1.528   1_554  S
C120        H122   1.088       .  S
C123        C124   1.325       .  D
C123        H125   1.085       .  S
C124        H126   1.088       .  S
C127        C323   1.531   1_554  S
C127        C128   1.365       .  D
C127        H129   1.089       .  S
C128        H130   1.086       .  S
C131        C132   1.352       .  D
C131        H133   1.081       .  S
C132        H134   1.088       .  S
C135        C136   1.360       .  D
C135        H137   1.086       .  S
C136        C534   1.544   1_545  S
C136        H138   1.088       .  S
C139        C140   1.342       .  D
C139        H141   1.080       .  S
C140        H142   1.087       .  S
C143        C144   1.349       .  D
C143        H145   1.085       .  S
C144        C952   1.527   1_455  S
C144        H146   1.090       .  S
C147        C476   1.538       .  S
C147        C148   1.360       .  D
C147        H149   1.088       .  S
C148        H150   1.086       .  S
C151        C152   1.357       .  D
C151        H153   1.081       .  S
C152        H154   1.088       .  S
C155        C156   1.356       .  D
C155        H157   1.089       .  S
C156        H158   1.071       .  S
C159        C160   1.359       .  D
C159        H161   1.087       .  S
C160        H162   1.088       .  S
C163        C164   1.375       .  D
C163        H165   1.084       .  S
C164        H166   1.088       .  S
C167        C168   1.354       .  D
C167        H169   1.086       .  S
C168        H170   1.088       .  S
C171        C172   1.357   1_545  D
C171        H173   1.086       .  S
C172        H594   1.088       .  S
H174        C592   1.088       .  S
C175        C176   1.370       .  D
C175        H177   1.088   1_545  S
C176        H178   1.084       .  S
C179        C180   1.362       .  D
C179        H181   1.084       .  S
C180        H182   1.088       .  S
C183        C184   1.374       .  D
C183        H185   1.085       .  S
C184        H186   1.087       .  S
C187        C188   1.360       .  D
C187        H399   1.086       .  S
C188        H190   1.088       .  S
H189        C397   1.086   1_554  S
C191        C402   1.356   1_554  D
C191        H193   1.080       .  S
C192        C401   1.353       .  D
C192        H194   1.088       .  S
C195        C196   1.353       .  D
C195       H1037   1.086       .  S
C196        C841   1.533       .  S
C196        H198   1.089       .  S
H197       C1035   1.086       .  S
C199        C200   1.354       .  D
C199        H201   1.087       .  S
C200        C841   1.512       .  S
C200       H1042   1.088       .  S
H202       C1040   1.087       .  S
C203        C841   1.531       .  S
C203        C204   1.350       .  D
C203        H205   1.090       .  S
C204        H206   1.085       .  S
C207        C208   1.360       .  D
C207        H209   1.087       .  S
C208        H210   1.086       .  S
C211       C1246   1.536       .  S
C211       C1250   1.523       .  S
C211       C1253   1.533       .  S
C211        C417   1.531   1_655  S
O212       Eu248   2.482       .  S
O212       C1063   1.294       .  A
O213        C224   1.295       .  A
O214       Eu640   2.499       .  S
O214        C225   1.296       .  A
O215       Eu220   2.490       .  S
O215        C226   1.295       .  A
O216        C226   1.284       .  A
O217       Eu249   2.434       .  S
O217        C225   1.289       .  A
O218       Eu640   2.406       .  S
O218        C224   1.284       .  A
O219       Eu220   2.333       .  S
O219        C223   1.270       .  A
Eu220       O634   2.489   1_545  S
Eu220       O638   2.402       .  S
Eu220       O230   2.344       .  S
Eu220       O642   2.352   1_545  S
Eu220       O221   2.332       .  S
Eu220       O648   2.340   1_545  S
O221       Eu457   2.346   1_546  S
O222       Eu640   2.349       .  S
O222      Eu1508   2.357       .  S
O222       Eu249   2.341       .  S
C223       O1052   1.297       .  A
C223        C409   1.432       .  S
C224        C377   1.486       .  S
C225        C369   1.490       .  S
C226        C389   1.465       .  S
H227        O228   0.970       .  S
O228       Eu640   2.345       .  S
O228       Eu249   2.366       .  S
H229        O230   0.964       .  S
O230      Eu1088   2.322       .  S
O231       Eu247   2.510       .  S
O231        C254   1.299       .  A
O232       Eu248   2.502       .  S
O233       Eu249   2.553       .  S
O233        C256   1.307       .  A
O234       Eu250   2.538       .  S
O234        C257   1.305       .  A
O235       Eu250   2.530       .  S
O235        C888   1.303       .  A
O236      Eu1089   2.559       .  S
O236        C259   1.309       .  A
O237       Eu251   2.476       .  S
O237        C260   1.292       .  A
O238       Eu671   2.494   1_545  S
O238       C1101   1.295       .  A
O239      Eu1089   2.384       .  S
O240       Eu250   2.440       .  S
O240        C261   1.289       .  A
O241        C256   1.289       .  A
O242       Eu668   2.402       .  S
O242        C259   1.283       .  A
O243       Eu248   2.446       .  S
O243        C258   1.291       .  A
O244       Eu247   2.396       .  S
O244        C677   1.282       .  A
O245      Eu1091   2.329       .  S
O245        C254   1.270       .  A
O246       Eu251   2.417       .  S
O246        C675   1.285       .  A
Eu247       O431   2.351       .  S
Eu247       O265   2.360       .  S
Eu247       O253   2.326       .  S
Eu248       O662   2.383       .  S
Eu248      O1482   2.348   1_545  S
Eu248      O1070   2.336   1_455  S
Eu248       O683   2.345   1_545  S
Eu249      O1076   2.557       .  S
Eu249      O1079   2.387       .  S
Eu249      O1103   2.362       .  S
Eu250      O1092   2.362       .  S
Eu250       O685   2.340   1_545  S
Eu251       O658   2.505       .  S
Eu251      O1085   2.324   1_455  S
Eu251       O672   2.337       .  S
Eu251      O1105   2.353   1_455  S
Eu251      O1093   2.348   1_455  S
O252      Eu1090   2.361   1_455  S
O252       Eu671   2.335   1_545  S
O253      Eu1091   2.352       .  S
C254        C366   1.439       .  S
C255        O666   1.282   1_545  A
C255        C381   1.487       .  S
C256        C393   1.514       .  S
C257        O664   1.284   1_545  A
C257        C386   1.494       .  S
C258        O865   1.298   1_456  A
C258        C397   1.486       .  S
C259        C373   1.499       .  S
C260        C401   1.463       .  S
C261       O1078   1.295       .  A
C261        C405   1.492       .  S
H262        O263   0.965       .  S
O263       Eu668   2.350       .  S
O263      Eu1089   2.358       .  S
H264        O265   0.965       .  S
O265       Eu670   2.341       .  S
O265      Eu1091   2.349       .  S
C266        C777   1.543       .  S
C266        C362   1.519   1_565  S
C266        C382   1.528       .  S
C266        C385   1.541   1_565  S
O267       Eu303   2.531       .  S
O267        C278   1.302       .  A
O268       Eu302   2.475       .  S
O268        C279   1.292       .  A
O269       Eu275   2.492       .  S
O269        C280   1.295       .  A
O270       Eu275   2.498       .  S
O270        C281   1.297       .  A
O271       Eu305   2.388       .  S
O271        C281   1.282       .  A
O272       Eu304   2.441       .  S
O272        C280   1.291       .  A
O273       Eu275   2.448       .  S
O273        C279   1.291       .  A
O274       Eu275   2.375       .  S
O274        C278   1.279       .  A
Eu275       O285   2.362       .  S
Eu275       O277   2.343       .  S
Eu275       O276   2.331       .  S
Eu275       O283   2.356       .  S
O276       Eu305   2.356       .  S
O276       Eu302   2.350       .  S
O277       Eu303   2.341       .  S
O277       Eu304   2.321       .  S
C278        C418   1.484       .  S
C279        C329   1.487       .  S
C280        C353   1.490       .  S
C281        C361   1.470       .  S
H282        O283   0.968       .  S
O283       Eu304   2.363       .  S
O283       Eu302   2.360       .  S
H284        O285   0.965       .  S
O285       Eu303   2.350       .  S
O285       Eu305   2.367       .  S
O286       Eu302   2.493       .  S
O286        C309   1.296       .  A
O287       Eu303   2.530       .  S
O287        C310   1.301       .  A
O288       Eu304   2.537       .  S
O288        C311   1.304       .  A
O289       Eu305   2.543       .  S
O289        C312   1.305       .  A
O290       Eu305   2.513       .  S
O290        C313   1.300       .  A
O291       Eu304   2.565       .  S
O291        C314   1.309       .  A
O292       Eu306   2.498       .  S
O292        C315   1.296       .  A
O293       Eu306   2.517       .  S
O293        C316   1.298       .  A
O294       Eu304   2.375       .  S
O294        C315   1.281       .  A
O295       Eu305   2.444       .  S
O295        C316   1.291       .  A
O296       Eu302   2.431       .  S
O296        C311   1.287       .  A
O297       Eu303   2.370       .  S
O297        C314   1.278       .  A
O298       Eu303   2.445       .  S
O298        C313   1.291       .  A
O299       Eu302   2.396       .  S
O299        C312   1.282       .  A
O300       Eu306   2.341       .  S
O300        C309   1.272       .  A
O301       Eu306   2.394       .  S
O301        C310   1.280       .  A
Eu302       O320   2.351       .  S
Eu302       O308   2.319       .  S
Eu303       O307   2.368       .  S
Eu303       O318   2.348       .  S
Eu304       O318   2.353       .  S
Eu304       O308   2.353       .  S
Eu305       O307   2.369       .  S
Eu305       O320   2.338       .  S
Eu306       O307   2.348       .  S
Eu306       O318   2.345       .  S
Eu306       O320   2.342       .  S
Eu306       O308   2.349       .  S
C309        C349   1.436       .  S
C310        C333   1.470       .  S
C311        C358   1.503       .  S
C312        C338   1.495       .  S
C313        C345   1.492       .  S
C314        C325   1.493       .  S
C315        C341   1.467       .  S
C316        C414   1.501       .  S
H317        O318   0.965       .  S
H319        O320   0.965       .  S
C321        C326   1.536       .  S
C321        C398   1.532       .  S
C321        C402   1.515       .  S
C322        C350   1.519       .  S
C322       C1194   1.526       .  S
C322        C365   1.510       .  S
C322        C370   1.531       .  S
C323        C334   1.545       .  S
C323        C390   1.520       .  S
C323        C394   1.561       .  S
C324        C342   1.516       .  S
C324        C766   1.539       .  S
C324        C374   1.542       .  S
C324        C378   1.527       .  S
C325        C326   1.374       .  D
C325        H327   1.084       .  S
C326        H328   1.088       .  S
C329        C330   1.351       .  D
C329        H331   1.086       .  S
C330        H332   1.088       .  S
C333        C334   1.335       .  D
C333        H335   1.084       .  S
C334        H336   1.087       .  S
C337        C338   1.368       .  D
C337        H339   1.088       .  S
C338        H340   1.084       .  S
C341        C342   1.357       .  D
C341        H343   1.081       .  S
C342        H344   1.088       .  S
C345        C346   1.357       .  D
C345        H347   1.086       .  S
C346        C744   1.536   1_545  S
C346        H348   1.088       .  S
C349        C350   1.359       .  D
C349        H351   1.084       .  S
C350        H352   1.087       .  S
C353        C354   1.346       .  D
C353        H355   1.085       .  S
C354       C1162   1.525   1_455  S
C354        H356   1.091       .  S
C357        C686   1.543       .  S
C357        C358   1.365       .  D
C357        H359   1.088       .  S
C358        H360   1.086       .  S
C361        C362   1.358       .  D
C361        H363   1.081       .  S
C362        H364   1.088       .  S
C365        C366   1.357       .  D
C365        H367   1.088       .  S
C366        H368   1.086       .  S
C369        C370   1.353       .  D
C369        H371   1.085       .  S
C370        H372   1.089       .  S
C373        C374   1.373       .  D
C373        H375   1.084       .  S
C374        H376   1.087       .  S
C377        C378   1.357       .  D
C377        H379   1.086       .  S
C378        H380   1.088       .  S
C381        C382   1.359   1_545  D
C381        H383   1.086       .  S
C382        H804   1.088       .  S
H384        C802   1.087       .  S
C385        C386   1.369       .  D
C385        H387   1.088   1_545  S
C386        H388   1.084       .  S
C389        C390   1.358       .  D
C389        H391   1.085       .  S
C390        H392   1.089       .  S
C393        C394   1.369       .  D
C393        H395   1.085       .  S
C394        H396   1.087       .  S
C397        C398   1.355       .  D
C398        H400   1.089       .  S
C401        H403   1.080       .  S
C402        H404   1.088       .  S
C405        C406   1.353       .  D
C405       H1247   1.086       .  S
C406       C1051   1.530       .  S
C406        H408   1.089       .  S
H407       C1245   1.086       .  S
C409        C410   1.352       .  D
C409        H411   1.087       .  S
C410       C1051   1.507       .  S
C410       H1252   1.088       .  S
H412       C1250   1.089       .  S
C413       C1051   1.537       .  S
C413        C414   1.352       .  D
C413        H415   1.090       .  S
C414        H416   1.085       .  S
C417        C418   1.356       .  D
C417        H419   1.088       .  S
C418        H420   1.085       .  S
C421       C1456   1.532       .  S
C421       C1460   1.511       .  S
C421       C1463   1.530       .  S
C421        C627   1.529   1_655  S
O422       Eu458   2.507       .  S
O422       C1273   1.299   1_455  A
O423       Eu667   2.505       .  S
O423        C434   1.296       .  A
O424        C435   1.296       .  A
O425       Eu430   2.495       .  S
O425        C436   1.296       .  A
O426       Eu670   2.388       .  S
O426        C436   1.282       .  A
O427       Eu459   2.440       .  S
O427        C435   1.290       .  A
O428        C434   1.282   1_545  A
O429       Eu430   2.376       .  S
O429        C433   1.278       .  A
Eu430       O440   2.349       .  S
Eu430       O431   2.336       .  S
O431       Eu670   2.354       .  S
O432       Eu878   2.361   1_565  S
O432       Eu459   2.349       .  S
C433       O1262   1.297       .  A
C433        C619   1.465       .  S
C434        C587   1.486       .  S
C435        C579   1.491       .  S
C436        C599   1.464       .  S
H437        O438   0.969       .  S
O438       Eu459   2.368       .  S
O438       Eu667   2.361       .  S
H439        O440   0.964       .  S
O440      Eu1298   2.329       .  S
O440       Eu670   2.366       .  S
O441       Eu457   2.497       .  S
O441        C464   1.297       .  A
O442       Eu458   2.509       .  S
O442        C675   1.297       .  A
O443       Eu459   2.565       .  S
O443        C466   1.310       .  A
O444       Eu460   2.533       .  S
O444        C467   1.304       .  A
O445       Eu460   2.531       .  S
O445       C1518   1.303   1_554  A
O446      Eu1299   2.562       .  S
O446        C469   1.309       .  A
O447       Eu461   2.487       .  S
O447        C470   1.294       .  A
O448       C1311   1.294   1_455  A
O449      Eu1299   2.390       .  S
O449        C680   1.283       .  A
O450       Eu460   2.441       .  S
O450        C471   1.290       .  A
O451       Eu667   2.431       .  S
O451        C466   1.287       .  A
O452        C469   1.279   1_545  A
O453       Eu458   2.433       .  S
O453        C468   1.288       .  A
O454       Eu457   2.404       .  S
O455      Eu1301   2.325       .  S
O455        C464   1.269       .  A
O456       Eu461   2.408       .  S
Eu457       O633   2.493   1_554  S
Eu457       O661   2.430   1_554  S
Eu457       O648   2.362   1_554  S
Eu457       O475   2.366       .  S
Eu457       O463   2.326   1_554  S
Eu458       O852   2.357       .  S
Eu458      O1280   2.319   1_455  S
Eu458       O672   2.364       .  S
Eu459      O1286   2.560       .  S
Eu459      O1289   2.392       .  S
Eu459      O1313   2.362       .  S
Eu459       O673   2.343       .  S
Eu460       O636   2.398   1_554  S
Eu460       O641   2.360   1_554  S
Eu460       O650   2.348   1_554  S
Eu460      O1302   2.366       .  S
Eu461      O1295   2.313   1_455  S
Eu461       O683   2.326   1_554  S
Eu461      O1315   2.351   1_455  S
Eu461      O1303   2.350   1_454  S
O462       Eu668   2.361   1_554  S
O462      Eu1300   2.361   1_455  S
O463       Eu669   2.342       .  S
O463      Eu1301   2.341   1_556  S
C464        C576   1.433       .  S
C465        O652   1.296   1_554  A
C465        C591   1.484       .  S
C466        C603   1.515       .  S
C467        C596   1.487       .  S
C468       O1495   1.301   1_455  A
C468        C607   1.492       .  S
C469        C583   1.493       .  S
C470        O659   1.281   1_554  A
C470        C611   1.467       .  S
C471       O1288   1.295       .  A
C471        C615   1.489       .  S
H472        O473   0.965       .  S
O473      Eu1299   2.364       .  S
O473       Eu671   2.322       .  S
H474        O475   0.966       .  S
O475      Eu1301   2.355       .  S
C476        C572   1.516       .  S
C476        C592   1.526       .  S
C476        C595   1.534       .  S
O477       Eu513   2.502       .  S
O477        C488   1.299       .  A
O478       Eu512   2.478       .  S
O478        C489   1.292       .  A
O479       Eu485   2.491       .  S
O479        C490   1.294       .  A
O480       Eu485   2.478       .  S
O480        C491   1.293       .  A
O481       Eu515   2.396       .  S
O481        C491   1.284       .  A
O482       Eu514   2.440       .  S
O482        C490   1.290       .  A
O483       Eu485   2.439       .  S
O483        C489   1.289       .  A
O484       Eu485   2.349       .  S
O484        C488   1.273       .  A
Eu485       O495   2.359       .  S
Eu485       O487   2.354       .  S
Eu485       O486   2.336       .  S
Eu485       O493   2.337       .  S
O486       Eu515   2.362       .  S
O486       Eu512   2.349       .  S
O487       Eu513   2.356       .  S
O487       Eu514   2.328       .  S
C488        C628   1.442       .  S
C489        C539   1.486       .  S
C490        C563   1.490       .  S
C491        C571   1.463       .  S
H492        O493   0.967       .  S
O493       Eu514   2.361       .  S
O493       Eu512   2.365       .  S
H494        O495   0.964       .  S
O495       Eu513   2.336       .  S
O495       Eu515   2.355       .  S
O496       Eu512   2.494       .  S
O496        C519   1.297       .  A
O497       Eu513   2.528       .  S
O497        C520   1.301       .  A
O498       Eu514   2.531       .  S
O498        C521   1.303       .  A
O499       Eu515   2.538       .  S
O499        C522   1.304       .  A
O500       Eu515   2.517       .  S
O500        C523   1.301       .  A
O501       Eu514   2.576       .  S
O501        C524   1.312       .  A
O502       Eu516   2.489       .  S
O502        C525   1.295       .  A
O503       Eu516   2.495       .  S
O503        C526   1.295       .  A
O504       Eu514   2.383       .  S
O504        C525   1.282       .  A
O505       Eu515   2.452       .  S
O505        C526   1.290       .  A
O506       Eu512   2.431       .  S
O506        C521   1.288       .  A
O507       Eu513   2.378       .  S
O507        C524   1.279       .  A
O508       Eu513   2.428       .  S
O508        C523   1.288       .  A
O509       Eu512   2.401       .  S
O509        C522   1.283       .  A
O510       Eu516   2.336       .  S
O510        C519   1.270       .  A
O511       Eu516   2.377       .  S
O511        C520   1.276       .  A
Eu512       O530   2.356       .  S
Eu512       O518   2.317       .  S
Eu513       O517   2.354       .  S
Eu513       O528   2.338       .  S
Eu514       O528   2.341       .  S
Eu514       O518   2.354       .  S
Eu515       O517   2.368       .  S
Eu515       O530   2.340       .  S
Eu516       O517   2.341       .  S
Eu516       O528   2.336       .  S
Eu516       O530   2.347       .  S
Eu516       O518   2.339       .  S
C519        C559   1.435       .  S
C520        C543   1.463       .  S
C521        C568   1.499       .  S
C522        C548   1.496       .  S
C523        C555   1.490       .  S
C524        C535   1.497       .  S
C525        C551   1.465       .  S
C526        C624   1.484       .  S
H527        O528   0.966       .  S
H529        O530   0.966       .  S
C531        C536   1.542       .  S
C531        C750   1.532       .  S
C531        C608   1.538       .  S
C531        C612   1.516       .  S
C532        C560   1.521       .  S
C532       C1404   1.527       .  S
C532        C575   1.507       .  S
C532        C580   1.530       .  S
C533        C544   1.538       .  S
C533        C757   1.531       .  S
C533        C600   1.521       .  S
C533        C604   1.559       .  S
C534        C552   1.516       .  S
C534        C584   1.536       .  S
C534        C588   1.528   1_565  S
C535        C536   1.377       .  D
C535        H537   1.084       .  S
C536        H538   1.087       .  S
C539        C540   1.350       .  D
C539        H541   1.086       .  S
C540        C741   1.530   1_554  S
C540        H542   1.088       .  S
C543        C544   1.329       .  D
C543        H545   1.084       .  S
C544        H546   1.088       .  S
C547        C743   1.534   1_554  S
C547        C548   1.363       .  D
C547        H549   1.088       .  S
C548        H550   1.086       .  S
C551        C552   1.354       .  D
C551        H553   1.081       .  S
C552        H554   1.088       .  S
C555        C556   1.359       .  D
C555        H557   1.086       .  S
C556        H558   1.088       .  S
C559        C560   1.361       .  D
C559        H561   1.084       .  S
C560        H562   1.087       .  S
C563        C564   1.348       .  D
C563        H565   1.085       .  S
C564       C1372   1.525   1_455  S
C564        H566   1.090       .  S
C567        C568   1.362       .  D
C567        H569   1.088       .  S
C568        H570   1.086       .  S
C571        C572   1.353       .  D
C571        H573   1.080       .  S
C572        H574   1.088       .  S
C575        C576   1.357       .  D
C575        H577   1.088       .  S
C576        H578   1.087       .  S
C579        C580   1.353       .  D
C579        H581   1.085       .  S
C580        H582   1.089       .  S
C583        C584   1.374       .  D
C583        H585   1.084       .  S
C584        H586   1.088   1_565  S
C587        C588   1.358   1_565  D
C587        H589   1.086       .  S
C588        H590   1.088       .  S
C591        C592   1.358       .  D
C591        H593   1.086       .  S
C595        C596   1.368       .  D
C595        H597   1.088       .  S
C596        H598   1.084       .  S
C599        C600   1.358       .  D
C599        H601   1.085       .  S
C600        H602   1.088       .  S
C603        C604   1.372       .  D
C603        H605   1.085       .  S
C604        H606   1.087       .  S
C607        C608   1.361       .  D
C607        H819   1.086       .  S
C608        H610   1.088       .  S
H609        C817   1.086       .  S
C611        C822   1.355   1_554  D
C611        H613   1.080       .  S
C612        C821   1.354       .  D
C612        H614   1.088       .  S
C615        C616   1.355       .  D
C615       H1457   1.086       .  S
C616       C1261   1.534       .  S
C616        H618   1.089       .  S
H617       C1455   1.086       .  S
C619        C620   1.358       .  D
C619        H621   1.082       .  S
C620       C1261   1.526       .  S
C620       H1462   1.087       .  S
H622       C1460   1.088       .  S
C623       C1261   1.538       .  S
C623        C624   1.350       .  D
C623        H625   1.090       .  S
C624        H626   1.085       .  S
C627        C628   1.364       .  D
C627        H629   1.087       .  S
C628        H630   1.082       .  S
C631       C1666   1.536       .  S
C631       C1670   1.525       .  S
C631       C1673   1.533       .  S
C631        C837   1.511   1_655  S
O632       Eu668   2.508       .  S
O632       C1483   1.300   1_455  A
O633        C644   1.294       .  A
O634        C645   1.294       .  A
O635       Eu640   2.500       .  S
O635        C646   1.297       .  A
O636        C646   1.284       .  A
O637       Eu669   2.442       .  S
O637        C645   1.290       .  A
O638        C644   1.283   1_545  A
O639       Eu640   2.345       .  S
O639        C643   1.272       .  A
Eu640       O650   2.346       .  S
Eu640       O641   2.334       .  S
O642      Eu1088   2.359   1_565  S
O642       Eu669   2.341       .  S
C643       O1472   1.298       .  A
C643        C829   1.438       .  S
C644        C797   1.482       .  S
C645        C789   1.489       .  S
C646        C809   1.467       .  S
H647        O648   0.970       .  S
O648       Eu669   2.367       .  S
H649        O650   0.964       .  S
O650      Eu1508   2.321       .  S
O651       Eu667   2.497       .  S
O651        C674   1.297       .  A
O652       Eu668   2.504       .  S
O653       Eu669   2.546       .  S
O653        C676   1.306       .  A
O654       Eu670   2.541       .  S
O654        C677   1.305       .  A
O655       Eu670   2.519       .  S
O655       C1308   1.301       .  A
O656      Eu1509   2.555       .  S
O656        C679   1.308       .  A
O657       Eu671   2.487       .  S
O657        C680   1.294       .  A
O658       C1521   1.296       .  A
O659      Eu1509   2.382       .  S
O660       Eu670   2.453       .  S
O660        C681   1.292       .  A
O661        C676   1.288       .  A
O662        C679   1.280   1_545  A
O663       Eu668   2.428       .  S
O663        C678   1.288       .  A
O664       Eu667   2.409       .  S
O665      Eu1511   2.320       .  S
O665        C674   1.269       .  A
O666       Eu671   2.399       .  S
Eu667       O685   2.369       .  S
Eu667       O673   2.333       .  S
Eu668      O1062   2.352   1_455  S
Eu668      O1490   2.324   1_455  S
Eu669      O1496   2.558       .  S
Eu669      O1499   2.390       .  S
Eu669      O1523   2.362       .  S
Eu670      O1512   2.361       .  S
Eu671      O1505   2.322   1_455  S
Eu671      O1525   2.352   1_455  S
Eu671      O1513   2.345   1_455  S
O672      Eu1510   2.366   1_455  S
O673      Eu1511   2.347       .  S
C674        C786   1.430       .  S
C675        C801   1.489       .  S
C676        C813   1.508       .  S
C677        C806   1.493       .  S
C678       O1285   1.302   1_456  A
C678        C817   1.492   1_556  S
C679        C793   1.493       .  S
C680        C821   1.466       .  S
C681       O1498   1.294       .  A
C681        C825   1.494       .  S
H682        O683   0.966       .  S
O683      Eu1509   2.373       .  S
H684        O685   0.966       .  S
O685      Eu1511   2.355       .  S
C686        C782   1.516       .  S
C686        C802   1.530       .  S
C686        C805   1.540       .  S
O687       Eu723   2.495       .  S
O687        C698   1.297       .  A
O688       Eu722   2.482       .  S
O688        C699   1.293       .  A
O689       Eu695   2.503       .  S
O689        C700   1.296       .  A
O690       Eu695   2.487       .  S
O690        C701   1.294       .  A
O691       Eu725   2.394       .  S
O691        C701   1.283       .  A
O692       Eu724   2.435       .  S
O692        C700   1.289       .  A
O693       Eu695   2.433       .  S
O693        C699   1.289       .  A
O694       Eu695   2.336       .  S
O694        C698   1.272       .  A
Eu695       O705   2.356       .  S
Eu695       O697   2.354       .  S
Eu695       O696   2.335       .  S
Eu695       O703   2.339       .  S
O696       Eu725   2.362       .  S
O696       Eu722   2.352       .  S
O697       Eu723   2.362       .  S
O697       Eu724   2.329       .  S
C698        C838   1.437       .  S
C699        C749   1.486       .  S
C700        C773   1.493       .  S
C701        C781   1.467       .  S
H702        O703   0.967       .  S
O703       Eu724   2.360       .  S
O703       Eu722   2.363       .  S
H704        O705   0.964       .  S
O705       Eu723   2.338       .  S
O705       Eu725   2.347       .  S
O706       Eu722   2.501       .  S
O706        C729   1.298       .  A
O707       Eu723   2.520       .  S
O707        C730   1.299       .  A
O708       Eu724   2.533       .  S
O708        C731   1.303       .  A
O709       Eu725   2.536       .  S
O709        C732   1.304       .  A
O710       Eu725   2.526       .  S
O710        C733   1.302       .  A
O711       Eu724   2.566       .  S
O711        C734   1.310       .  A
O712       Eu726   2.491       .  S
O712        C735   1.295       .  A
O713       Eu726   2.520       .  S
O713        C736   1.299       .  A
O714       Eu724   2.377       .  S
O714        C735   1.281       .  A
O715       Eu725   2.430       .  S
O715        C736   1.289       .  A
O716       Eu722   2.433       .  S
O716        C731   1.288       .  A
O717       Eu723   2.389       .  S
O717        C734   1.281       .  A
O718       Eu723   2.431       .  S
O718        C733   1.288       .  A
O719       Eu722   2.401       .  S
O719        C732   1.284       .  A
O720       Eu726   2.328       .  S
O720        C729   1.269       .  A
O721       Eu726   2.399       .  S
O721        C730   1.280       .  A
Eu722       O740   2.352       .  S
Eu722       O728   2.316       .  S
Eu723       O727   2.363       .  S
Eu723       O738   2.341       .  S
Eu724       O738   2.351       .  S
Eu724       O728   2.351       .  S
Eu725       O727   2.374       .  S
Eu725       O740   2.338       .  S
Eu726       O727   2.345       .  S
Eu726       O738   2.343       .  S
Eu726       O740   2.342       .  S
Eu726       O728   2.345       .  S
C729        C769   1.435       .  S
C730        C753   1.469       .  S
C731        C778   1.502       .  S
C732        C758   1.494       .  S
C733        C765   1.495       .  S
C734        C745   1.498       .  S
C735        C761   1.465       .  S
C736        C834   1.499       .  S
H737        O738   0.965       .  S
H739        O740   0.966       .  S
C741        C746   1.543       .  S
C741        C818   1.536       .  S
C741        C822   1.514       .  S
C742        C770   1.520       .  S
C742       C1614   1.530       .  S
C742        C785   1.504       .  S
C742        C790   1.531       .  S
C743        C754   1.543       .  S
C743        C810   1.521       .  S
C743        C814   1.555       .  S
C744        C762   1.515       .  S
C744        C794   1.533       .  S
C744        C798   1.524   1_565  S
C745        C746   1.375       .  D
C745        H747   1.084       .  S
C746        H748   1.087       .  S
C749        C750   1.350       .  D
C749        H751   1.086       .  S
C750        H752   1.088       .  S
C753        C754   1.336       .  D
C753        H755   1.084       .  S
C754        H756   1.087       .  S
C757        C758   1.365       .  D
C757        H759   1.088       .  S
C758        H760   1.085       .  S
C761        C762   1.355       .  D
C761        H763   1.082       .  S
C762        H764   1.088       .  S
C765        C766   1.362       .  D
C765        H767   1.086       .  S
C766        H768   1.088       .  S
C769        C770   1.363       .  D
C769        H771   1.085       .  S
C770        H772   1.087       .  S
C773        C774   1.350       .  D
C773        H775   1.085       .  S
C774       C1582   1.527   1_455  S
C774        H776   1.090       .  S
C777        C778   1.364       .  D
C777        H779   1.088       .  S
C778        H780   1.086       .  S
C781        C782   1.355       .  D
C781        H783   1.081       .  S
C782        H784   1.088       .  S
C785        C786   1.357       .  D
C785        H787   1.088       .  S
C786        H788   1.087       .  S
C789        C790   1.353       .  D
C789        H791   1.085       .  S
C790        H792   1.089       .  S
C793        C794   1.372       .  D
C793        H795   1.084       .  S
C794        H796   1.088   1_565  S
C797        C798   1.356   1_565  D
C797        H799   1.086       .  S
C798        H800   1.088       .  S
C801        C802   1.358       .  D
C801        H803   1.086       .  S
C805        C806   1.371       .  D
C805        H807   1.088       .  S
C806        H808   1.084       .  S
C809        C810   1.358       .  D
C809        H811   1.085       .  S
C810        H812   1.089       .  S
C813        C814   1.366       .  D
C813        H815   1.085       .  S
C814        H816   1.088       .  S
C817        C818   1.361   1_554  D
C818        H820   1.088       .  S
C821        H823   1.079       .  S
C822        H824   1.088       .  S
C825        C826   1.352       .  D
C825       H1667   1.086       .  S
C826       C1471   1.534       .  S
C826        H828   1.089       .  S
H827       C1665   1.085       .  S
C829        C830   1.355       .  D
C829        H831   1.087       .  S
C830       C1471   1.513       .  S
C830       H1672   1.088       .  S
H832       C1670   1.087       .  S
C833       C1471   1.533       .  S
C833        C834   1.352       .  D
C833        H835   1.090       .  S
C834        H836   1.085       .  S
C837        C838   1.358       .  D
C837        H839   1.088       .  S
C838        H840   1.085       .  S
C841       C1047   1.527       .  S
O842       Eu878   2.499       .  S
O843      Eu1087   2.502       .  S
O843        C854   1.295       .  A
O844      Eu1270   2.484       .  S
O844        C855   1.293       .  A
O845       Eu850   2.507       .  S
O845        C856   1.298       .  A
O846      Eu1090   2.389       .  S
O846        C856   1.282       .  A
O847       Eu879   2.445   1_655  S
O847        C855   1.291       .  A
O848      Eu1270   2.396       .  S
O848        C854   1.282       .  A
O849       Eu850   2.377       .  S
O849        C853   1.278   1_655  A
Eu850      O1264   2.487   1_545  S
Eu850      O1268   2.409       .  S
Eu850       O860   2.350       .  S
Eu850      O1272   2.344   1_645  S
Eu850       O851   2.330       .  S
Eu850      O1278   2.365   1_545  S
O851      Eu1090   2.348       .  S
O851      Eu1507   2.347   1_545  S
O852      Eu1270   2.349   1_455  S
O852       Eu879   2.343       .  S
C853       C1039   1.466       .  S
C854       C1007   1.485       .  S
C855        C999   1.487       .  S
C856       C1019   1.471       .  S
H857        O858   0.969       .  S
O858      Eu1270   2.343       .  S
O858       Eu879   2.368   1_655  S
O858      Eu1087   2.359       .  S
H859        O860   0.965       .  S
O860      Eu1090   2.367       .  S
O861       Eu877   2.498       .  S
O861        C884   1.297       .  A
O862       Eu878   2.502       .  S
O862       C1095   1.296       .  A
O863       Eu879   2.576   1_655  S
O863        C886   1.312       .  A
O864       Eu880   2.536       .  S
O864        C887   1.304       .  A
O865       Eu880   2.501       .  S
O866        C889   1.310       .  A
O867       Eu881   2.490       .  S
O867        C890   1.295       .  A
O868      Eu1301   2.499   1_545  S
O869       C1100   1.282       .  A
O870       Eu880   2.448       .  S
O870        C891   1.290       .  A
O871      Eu1087   2.433       .  S
O871        C886   1.287       .  A
O872      Eu1298   2.377       .  S
O872        C889   1.279       .  A
O873       Eu878   2.430       .  S
O873        C888   1.288       .  A
O874       Eu877   2.397       .  S
O874       C1307   1.282       .  A
O875        C884   1.270       .  A
O876       Eu881   2.410       .  S
O876       C1305   1.284       .  A
Eu877      O1053   2.496   1_554  S
Eu877      O1081   2.438   1_554  S
Eu877      O1481   2.349   1_554  S
Eu877      O1068   2.361   1_554  S
Eu877       O895   2.367       .  S
Eu877       O883   2.327   1_554  S
Eu878      O1292   2.389       .  S
Eu878      O1092   2.360       .  S
Eu878      O1313   2.348   1_545  S
Eu879      O1093   2.342   1_455  S
Eu880      O1056   2.393   1_554  S
Eu880      O1061   2.349   1_554  S
Eu880      O1070   2.364   1_554  S
Eu880      O1315   2.339   1_545  S
Eu881      O1288   2.495       .  S
Eu881      O1302   2.342       .  S
Eu881      O1103   2.337   1_554  S
O882      Eu1088   2.360   1_554  S
O882      Eu1301   2.335   1_545  S
O883      Eu1089   2.340   1_655  S
C884        C996   1.435       .  S
C885       O1072   1.295   1_554  A
C885       O1296   1.283   1_545  A
C885       C1011   1.482       .  S
C886       C1023   1.520       .  S
C887       O1294   1.282   1_545  A
C887       C1016   1.491       .  S
C888       C1027   1.496       .  S
C889       C1003   1.495       .  S
C890       O1079   1.282   1_554  A
C890       C1031   1.470       .  S
C891       C1035   1.494   1_655  S
H892        O893   0.965       .  S
O893      Eu1298   2.352       .  S
O893      Eu1091   2.327       .  S
H894        O895   0.966       .  S
O895      Eu1300   2.341       .  S
C896       C1407   1.540       .  S
C896        C992   1.518   1_565  S
C896       C1012   1.524       .  S
C896       C1015   1.538   1_565  S
O897       Eu933   2.497       .  S
O897        C908   1.298       .  A
O898       Eu932   2.487       .  S
O898        C909   1.294       .  A
O899       Eu905   2.502       .  S
O899        C910   1.296       .  A
O900       Eu905   2.500       .  S
O900        C911   1.297       .  A
O901       Eu935   2.382       .  S
O901        C911   1.281       .  A
O902       Eu934   2.452       .  S
O902        C910   1.290       .  A
O903       Eu905   2.431       .  S
O903        C909   1.288       .  A
O904       Eu905   2.356       .  S
O904        C908   1.274       .  A
Eu905       O915   2.357       .  S
Eu905       O907   2.361       .  S
Eu905       O906   2.336       .  S
Eu905       O913   2.335       .  S
O906       Eu935   2.359       .  S
O906       Eu932   2.350       .  S
O907       Eu933   2.365       .  S
O907       Eu934   2.332       .  S
C908       C1048   1.443       .  S
C909        C959   1.488       .  S
C910        C983   1.486       .  S
C911        C991   1.468       .  S
H912        O913   0.965       .  S
O913       Eu934   2.363       .  S
O913       Eu932   2.363       .  S
H914        O915   0.964       .  S
O915       Eu933   2.336       .  S
O915       Eu935   2.352       .  S
O916       Eu932   2.498       .  S
O916        C939   1.297       .  A
O917       Eu933   2.536       .  S
O917        C940   1.302       .  A
O918       Eu934   2.524       .  S
O918        C941   1.302       .  A
O919       Eu935   2.543       .  S
O919        C942   1.305       .  A
O920       Eu935   2.524       .  S
O920        C943   1.302       .  A
O921       Eu934   2.581       .  S
O921        C944   1.312       .  A
O922       Eu936   2.486       .  S
O922        C945   1.294       .  A
O923       Eu936   2.501       .  S
O923        C946   1.296       .  A
O924       Eu934   2.391       .  S
O924        C945   1.283       .  A
O925       Eu935   2.440       .  S
O925        C946   1.288       .  A
O926       Eu932   2.433       .  S
O926        C941   1.289       .  A
O927       Eu933   2.381       .  S
O927        C944   1.279       .  A
O928       Eu933   2.437       .  S
O928        C943   1.289       .  A
O929       Eu932   2.407       .  S
O929        C942   1.285       .  A
O930       Eu936   2.338       .  S
O930        C939   1.270       .  A
O931       Eu936   2.367       .  S
O931        C940   1.275       .  A
Eu932       O950   2.357       .  S
Eu932       O938   2.320       .  S
Eu933       O937   2.355       .  S
Eu933       O948   2.338       .  S
Eu934       O948   2.341       .  S
Eu934       O938   2.362       .  S
Eu935       O937   2.367       .  S
Eu935       O950   2.341       .  S
Eu936       O937   2.339       .  S
Eu936       O948   2.344       .  S
Eu936       O950   2.346       .  S
Eu936       O938   2.339       .  S
C939        C979   1.437       .  S
C940        C963   1.464       .  S
C941        C988   1.496       .  S
C942        C968   1.499       .  S
C943        C975   1.494       .  S
C944        C955   1.501       .  S
C945        C971   1.466       .  S
C946       C1044   1.483       .  S
H947        O948   0.965       .  S
H949        O950   0.966       .  S
C951        C956   1.545       .  S
C951       C1170   1.534       .  S
C951       C1028   1.540       .  S
C951       C1032   1.513       .  S
C952        C980   1.521       .  S
C952        C995   1.509       .  S
C952       C1000   1.529       .  S
C953        C964   1.537       .  S
C953       C1177   1.533       .  S
C953       C1020   1.524       .  S
C953       C1024   1.564       .  S
C954        C972   1.515       .  S
C954       C1396   1.543       .  S
C954       C1004   1.537       .  S
C954       C1008   1.526       .  S
C955        C956   1.379       .  D
C955        H957   1.084       .  S
C956        H958   1.087       .  S
C959        C960   1.353       .  D
C959        H961   1.086       .  S
C960       C1161   1.531   1_554  S
C960        H962   1.088       .  S
C963        C964   1.330       .  D
C963        H965   1.085       .  S
C964        H966   1.087       .  S
C967       C1163   1.538   1_554  S
C967        C968   1.363       .  D
C967        H969   1.088       .  S
C968        H970   1.086       .  S
C971        C972   1.354       .  D
C971        H973   1.082       .  S
C972        H974   1.088       .  S
C975        C976   1.360       .  D
C975        H977   1.086       .  S
C976       C1374   1.537       .  S
C976        H978   1.088       .  S
C979        C980   1.360       .  D
C979        H981   1.085       .  S
C980        H982   1.087       .  S
C983        C984   1.352       .  D
C983        H985   1.083       .  S
C984        H986   1.089       .  S
C987       C1316   1.537       .  S
C987        C988   1.360       .  D
C987        H989   1.088       .  S
C988        H990   1.086       .  S
C991        C992   1.358       .  D
C991        H993   1.080       .  S
C992        H994   1.088       .  S
C995        C996   1.357       .  D
C995        H997   1.088       .  S
C996        H998   1.086       .  S
C999       C1000   1.350       .  D
C999       H1001   1.085       .  S
C1000      H1002   1.089   1_655  S
C1003      C1004   1.375       .  D
C1003      H1005   1.084       .  S
C1004      H1006   1.088       .  S
C1007      C1008   1.358       .  D
C1007      H1009   1.086       .  S
C1008      H1010   1.088       .  S
C1011      C1012   1.356   1_545  D
C1011      H1013   1.086       .  S
C1012      H1434   1.088       .  S
H1014      C1432   1.088       .  S
C1015      C1016   1.368       .  D
C1015      H1017   1.088   1_545  S
C1016      H1018   1.084       .  S
C1019      C1020   1.363       .  D
C1019      H1021   1.084       .  S
C1020      H1022   1.088       .  S
C1023      C1024   1.374       .  D
C1023      H1025   1.085       .  S
C1024      H1026   1.087       .  S
C1027      C1028   1.363       .  D
C1027      H1239   1.086       .  S
C1028      H1030   1.088       .  S
H1029      C1237   1.086       .  S
C1031      C1242   1.357   1_554  D
C1031      H1033   1.081       .  S
C1032      C1241   1.353       .  D
C1032      H1034   1.088       .  S
C1035      C1036   1.357   1_455  D
C1036      H1038   1.088       .  S
C1039      C1040   1.358   1_455  D
C1039      H1041   1.082       .  S
C1043      C1044   1.351       .  D
C1043      H1045   1.089       .  S
C1044      H1046   1.085       .  S
C1047      C1048   1.361       .  D
C1047      H1049   1.087       .  S
C1048      H1050   1.083       .  S
C1051      C1257   1.532       .  S
O1052     Eu1088   2.494       .  S
O1053      C1064   1.294       .  A
O1054     Eu1480   2.482       .  S
O1054      C1065   1.293       .  A
O1055     Eu1060   2.503       .  S
O1055      C1066   1.298       .  A
O1056      C1066   1.283       .  A
O1057     Eu1089   2.427   1_655  S
O1057      C1065   1.289       .  A
O1058     Eu1480   2.404       .  S
O1058      C1064   1.283       .  A
O1059     Eu1060   2.394       .  S
O1059      C1063   1.282   1_655  A
Eu1060     O1474   2.482   1_545  S
Eu1060     O1478   2.421       .  S
Eu1060     O1070   2.343       .  S
Eu1060     O1482   2.339   1_645  S
Eu1060     O1061   2.336       .  S
Eu1060     O1488   2.364   1_545  S
O1061     Eu1297   2.351   1_546  S
O1062     Eu1480   2.350       .  S
O1062     Eu1089   2.343   1_655  S
C1063      C1249   1.470       .  S
C1064      C1217   1.484       .  S
C1065      C1209   1.482       .  S
C1066      C1229   1.470       .  S
H1067      O1068   0.970       .  S
O1068     Eu1480   2.345       .  S
O1068     Eu1089   2.368   1_655  S
H1069      O1070   0.964       .  S
O1071     Eu1087   2.495       .  S
O1071      C1094   1.297       .  A
O1072     Eu1088   2.500       .  S
O1073     Eu1089   2.554   1_655  S
O1073      C1096   1.308       .  A
O1074     Eu1090   2.545       .  S
O1074      C1097   1.306       .  A
O1075     Eu1090   2.518       .  S
O1076      C1099   1.308       .  A
O1077     Eu1091   2.479       .  S
O1077      C1100   1.293       .  A
O1078     Eu1511   2.495   1_545  S
O1080     Eu1090   2.443       .  S
O1080      C1101   1.290   1_655  A
O1081      C1096   1.289       .  A
O1082     Eu1508   2.390       .  S
O1082      C1099   1.281       .  A
O1083     Eu1088   2.435       .  S
O1083      C1098   1.289       .  A
O1084     Eu1087   2.402       .  S
O1084      C1517   1.283       .  A
O1085      C1094   1.269       .  A
O1086     Eu1091   2.405       .  S
O1086      C1515   1.283       .  A
Eu1087     O1271   2.344       .  S
Eu1087     O1105   2.367       .  S
Eu1087     O1093   2.331       .  S
Eu1088     O1502   2.398       .  S
Eu1088     O1523   2.347   1_545  S
Eu1090     O1525   2.346   1_545  S
Eu1091     O1498   2.490       .  S
Eu1091     O1512   2.336       .  S
O1092     Eu1511   2.335   1_545  S
C1094      C1206   1.430       .  S
C1095      O1506   1.283   1_545  A
C1095      C1221   1.484       .  S
C1096      C1233   1.513       .  S
C1097      O1504   1.282   1_545  A
C1097      C1226   1.493       .  S
C1098      C1237   1.496   1_556  S
C1099      C1213   1.495       .  S
C1100      C1241   1.464       .  S
C1101      C1245   1.489       .  S
H1102      O1103   0.964       .  S
O1103     Eu1508   2.349       .  S
H1104      O1105   0.965       .  S
O1105     Eu1510   2.340       .  S
C1106      C1617   1.544       .  S
C1106      C1202   1.518   1_565  S
C1106      C1222   1.526       .  S
C1106      C1225   1.539   1_565  S
O1107     Eu1143   2.516       .  S
O1107      C1118   1.301       .  A
O1108     Eu1142   2.490       .  S
O1108      C1119   1.294       .  A
O1109     Eu1115   2.494       .  S
O1109      C1120   1.294       .  A
O1110     Eu1115   2.491       .  S
O1110      C1121   1.295       .  A
O1111     Eu1145   2.392       .  S
O1111      C1121   1.282       .  A
O1112     Eu1144   2.436       .  S
O1112      C1120   1.290       .  A
O1113     Eu1115   2.435       .  S
O1113      C1119   1.288       .  A
O1114     Eu1115   2.354       .  S
O1114      C1118   1.274       .  A
Eu1115     O1125   2.357       .  S
Eu1115     O1117   2.355       .  S
Eu1115     O1116   2.338       .  S
Eu1115     O1123   2.345       .  S
O1116     Eu1145   2.361       .  S
O1116     Eu1142   2.352       .  S
O1117     Eu1143   2.356       .  S
O1117     Eu1144   2.330       .  S
C1118      C1258   1.449       .  S
C1119      C1169   1.490       .  S
C1120      C1193   1.492       .  S
C1121      C1201   1.467       .  S
H1122      O1123   0.967       .  S
O1123     Eu1144   2.361       .  S
O1123     Eu1142   2.364       .  S
H1124      O1125   0.964       .  S
O1125     Eu1143   2.338       .  S
O1125     Eu1145   2.351       .  S
O1126     Eu1142   2.496       .  S
O1126      C1149   1.297       .  A
O1127     Eu1143   2.536       .  S
O1127      C1150   1.302       .  A
O1128     Eu1144   2.538       .  S
O1128      C1151   1.304       .  A
O1129     Eu1145   2.540       .  S
O1129      C1152   1.305       .  A
O1130     Eu1145   2.517       .  S
O1130      C1153   1.300       .  A
O1131     Eu1144   2.567       .  S
O1131      C1154   1.310       .  A
O1132     Eu1146   2.497       .  S
O1132      C1155   1.296       .  A
O1133     Eu1146   2.514       .  S
O1133      C1156   1.298       .  A
O1134     Eu1144   2.377       .  S
O1134      C1155   1.281       .  A
O1135     Eu1145   2.432       .  S
O1135      C1156   1.289       .  A
O1136     Eu1142   2.428       .  S
O1136      C1151   1.287       .  A
O1137     Eu1143   2.389       .  S
O1137      C1154   1.281       .  A
O1138     Eu1143   2.431       .  S
O1138      C1153   1.289       .  A
O1139     Eu1142   2.399       .  S
O1139      C1152   1.283       .  A
O1140     Eu1146   2.342       .  S
O1140      C1149   1.272       .  A
O1141     Eu1146   2.400       .  S
O1141      C1150   1.280       .  A
Eu1142     O1160   2.351       .  S
Eu1142     O1148   2.322       .  S
Eu1143     O1147   2.365       .  S
Eu1143     O1158   2.345       .  S
Eu1144     O1158   2.350       .  S
Eu1144     O1148   2.352       .  S
Eu1145     O1147   2.373       .  S
Eu1145     O1160   2.334       .  S
Eu1146     O1147   2.350       .  S
Eu1146     O1158   2.344       .  S
Eu1146     O1160   2.345       .  S
Eu1146     O1148   2.346       .  S
C1149      C1189   1.437       .  S
C1150      C1173   1.474       .  S
C1151      C1198   1.502       .  S
C1152      C1178   1.497       .  S
C1153      C1185   1.491       .  S
C1154      C1165   1.498       .  S
C1155      C1181   1.467       .  S
C1156      C1254   1.498       .  S
H1157      O1158   0.965       .  S
H1159      O1160   0.966       .  S
C1161      C1166   1.542       .  S
C1161      C1238   1.540       .  S
C1161      C1242   1.517       .  S
C1162      C1190   1.522       .  S
C1162      C1205   1.504       .  S
C1162      C1210   1.524       .  S
C1163      C1174   1.547       .  S
C1163      C1230   1.524       .  S
C1163      C1234   1.560       .  S
C1164      C1182   1.517       .  S
C1164      C1606   1.538       .  S
C1164      C1214   1.539       .  S
C1164      C1218   1.526       .  S
C1165      C1166   1.375       .  D
C1165      H1167   1.084       .  S
C1166      H1168   1.087       .  S
C1169      C1170   1.354       .  D
C1169      H1171   1.086       .  S
C1170      H1172   1.088       .  S
C1173      C1174   1.337       .  D
C1173      H1175   1.084       .  S
C1174      H1176   1.087       .  S
C1177      C1178   1.367       .  D
C1177      H1179   1.088       .  S
C1178      H1180   1.085       .  S
C1181      C1182   1.357       .  D
C1181      H1183   1.081       .  S
C1182      H1184   1.088       .  S
C1185      C1186   1.359       .  D
C1185      H1187   1.086       .  S
C1186      C1584   1.534       .  S
C1186      H1188   1.089       .  S
C1189      C1190   1.361       .  D
C1189      H1191   1.084       .  S
C1190      H1192   1.087       .  S
C1193      C1194   1.349       .  D
C1193      H1195   1.085       .  S
C1194      H1196   1.090       .  S
C1197      C1526   1.542       .  S
C1197      C1198   1.364       .  D
C1197      H1199   1.088       .  S
C1198      H1200   1.086       .  S
C1201      C1202   1.357       .  D
C1201      H1203   1.080       .  S
C1202      H1204   1.088       .  S
C1205      C1206   1.355       .  D
C1205      H1207   1.089       .  S
C1206      H1208   1.086       .  S
C1209      C1210   1.349       .  D
C1209      H1211   1.085       .  S
C1210      H1212   1.090   1_655  S
C1213      C1214   1.372       .  D
C1213      H1215   1.084       .  S
C1214      H1216   1.088       .  S
C1217      C1218   1.356       .  D
C1217      H1219   1.086       .  S
C1218      H1220   1.088       .  S
C1221      C1222   1.357   1_545  D
C1221      H1223   1.086       .  S
C1222      H1644   1.088       .  S
H1224      C1642   1.088       .  S
C1225      C1226   1.370       .  D
C1225      H1227   1.088   1_545  S
C1226      H1228   1.084       .  S
C1229      C1230   1.361       .  D
C1229      H1231   1.085       .  S
C1230      H1232   1.089       .  S
C1233      C1234   1.369       .  D
C1233      H1235   1.085       .  S
C1234      H1236   1.087       .  S
C1237      C1238   1.361   1_554  D
C1238      H1240   1.088       .  S
C1241      H1243   1.080       .  S
C1242      H1244   1.088       .  S
C1245      C1246   1.354   1_455  D
C1246      H1248   1.089       .  S
C1249      C1250   1.352   1_455  D
C1249      H1251   1.080       .  S
C1253      C1254   1.353       .  D
C1253      H1255   1.090       .  S
C1254      H1256   1.085       .  S
C1257      C1258   1.366       .  D
C1257      H1259   1.087       .  S
C1258      H1260   1.083       .  S
C1261      C1467   1.513       .  S
O1262     Eu1298   2.495       .  S
O1263     Eu1507   2.493       .  S
O1263      C1274   1.295       .  A
O1264      C1275   1.294       .  A
O1265     Eu1270   2.498       .  S
O1265      C1276   1.296       .  A
O1266     Eu1510   2.393       .  S
O1266      C1276   1.283       .  A
O1267     Eu1299   2.444   1_655  S
O1267      C1275   1.291       .  A
O1268      C1274   1.285   1_545  A
O1269     Eu1270   2.324       .  S
O1269      C1273   1.268       .  A
Eu1270     O1280   2.344       .  S
Eu1270     O1271   2.327       .  S
O1271     Eu1510   2.361       .  S
O1272     Eu1299   2.342       .  S
C1273      C1459   1.434       .  S
C1274      C1427   1.483       .  S
C1275      C1419   1.486       .  S
C1276      C1439   1.466       .  S
H1277      O1278   0.967       .  S
O1278     Eu1299   2.371   1_655  S
O1278     Eu1507   2.364       .  S
H1279      O1280   0.964       .  S
O1280     Eu1510   2.348       .  S
O1281     Eu1297   2.503       .  S
O1281      C1304   1.298       .  A
O1282     Eu1298   2.494       .  S
O1282      C1515   1.294       .  A
O1283     Eu1299   2.555   1_655  S
O1283      C1306   1.307       .  A
O1284     Eu1300   2.533       .  S
O1284      C1307   1.304       .  A
O1285     Eu1300   2.524       .  S
O1286      C1309   1.309       .  A
O1287     Eu1301   2.487       .  S
O1287      C1310   1.294       .  A
O1289      C1520   1.283       .  A
O1290     Eu1300   2.452       .  S
O1290      C1311   1.292       .  A
O1291     Eu1507   2.434       .  S
O1291      C1306   1.288       .  A
O1292      C1309   1.281   1_545  A
O1293     Eu1298   2.444       .  S
O1293      C1308   1.290       .  A
O1294     Eu1297   2.399       .  S
O1295      C1304   1.267       .  A
O1296     Eu1301   2.402       .  S
Eu1297     O1473   2.479   1_554  S
Eu1297     O1501   2.434   1_554  S
Eu1297     O1488   2.363   1_554  S
Eu1297     O1315   2.357       .  S
Eu1297     O1303   2.323   1_554  S
Eu1298     O1512   2.358       .  S
Eu1299     O1513   2.344   1_455  S
Eu1300     O1476   2.395   1_554  S
Eu1300     O1481   2.361   1_554  S
Eu1300     O1490   2.351   1_554  S
Eu1301     O1523   2.332   1_554  S
O1302     Eu1508   2.363   1_554  S
O1303     Eu1509   2.341   1_655  S
C1304      C1416   1.433       .  S
C1305      O1492   1.295   1_554  A
C1305      C1431   1.483       .  S
C1306      C1443   1.513       .  S
C1307      C1436   1.488       .  S
C1308      C1447   1.493       .  S
C1309      C1423   1.493       .  S
C1310      O1499   1.282   1_554  A
C1310      C1451   1.470       .  S
C1311      C1455   1.493   1_655  S
H1312      O1313   0.965       .  S
O1313     Eu1511   2.327       .  S
H1314      O1315   0.965       .  S
C1316      C1412   1.516       .  S
C1316      C1432   1.526       .  S
C1316      C1435   1.535       .  S
O1317     Eu1353   2.507       .  S
O1317      C1328   1.297       .  A
O1318     Eu1352   2.478       .  S
O1318      C1329   1.292       .  A
O1319     Eu1325   2.494       .  S
O1319      C1330   1.295       .  A
O1320     Eu1325   2.477       .  S
O1320      C1331   1.293       .  A
O1321     Eu1355   2.397       .  S
O1321      C1331   1.283       .  A
O1322     Eu1354   2.442       .  S
O1322      C1330   1.291       .  A
O1323     Eu1325   2.445       .  S
O1323      C1329   1.290       .  A
O1324     Eu1325   2.353       .  S
O1324      C1328   1.276       .  A
Eu1325     O1335   2.364       .  S
Eu1325     O1327   2.339       .  S
Eu1325     O1326   2.329       .  S
Eu1325     O1333   2.342       .  S
O1326     Eu1355   2.364       .  S
O1326     Eu1352   2.355       .  S
O1327     Eu1353   2.344       .  S
O1327     Eu1354   2.311       .  S
C1328      C1468   1.465       .  S
C1329      C1379   1.489       .  S
C1330      C1403   1.492       .  S
C1331      C1411   1.464       .  S
H1332      O1333   0.968       .  S
O1333     Eu1354   2.366       .  S
O1333     Eu1352   2.359       .  S
H1334      O1335   0.965       .  S
O1335     Eu1353   2.350       .  S
O1335     Eu1355   2.358       .  S
O1336     Eu1352   2.490       .  S
O1336      C1359   1.296       .  A
O1337     Eu1353   2.533       .  S
O1337      C1360   1.301       .  A
O1338     Eu1354   2.527       .  S
O1338      C1361   1.302       .  A
O1339     Eu1355   2.542       .  S
O1339      C1362   1.305       .  A
O1340     Eu1355   2.532       .  S
O1340      C1363   1.304       .  A
O1341     Eu1354   2.573       .  S
O1341      C1364   1.311       .  A
O1342     Eu1356   2.492       .  S
O1342      C1365   1.295       .  A
O1343     Eu1356   2.502       .  S
O1343      C1366   1.296       .  A
O1344     Eu1354   2.378       .  S
O1344      C1365   1.281       .  A
O1345     Eu1355   2.440       .  S
O1345      C1366   1.291       .  A
O1346     Eu1352   2.432       .  S
O1346      C1361   1.288       .  A
O1347     Eu1353   2.366       .  S
O1347      C1364   1.277       .  A
O1348     Eu1353   2.443       .  S
O1348      C1363   1.290       .  A
O1349     Eu1352   2.394       .  S
O1349      C1362   1.282       .  A
O1350     Eu1356   2.314       .  S
O1350      C1359   1.266       .  A
O1351     Eu1356   2.361       .  S
O1351      C1360   1.274       .  A
Eu1352     O1370   2.347       .  S
Eu1352     O1358   2.319       .  S
Eu1353     O1357   2.358       .  S
Eu1353     O1368   2.343       .  S
Eu1354     O1368   2.350       .  S
Eu1354     O1358   2.356       .  S
Eu1355     O1357   2.370       .  S
Eu1355     O1370   2.341       .  S
Eu1356     O1357   2.347       .  S
Eu1356     O1368   2.336       .  S
Eu1356     O1370   2.333       .  S
Eu1356     O1358   2.340       .  S
C1359      C1399   1.426       .  S
C1360      C1383   1.462       .  S
C1361      C1408   1.499       .  S
C1362      C1388   1.495       .  S
C1363      C1395   1.499       .  S
C1364      C1375   1.495       .  S
C1365      C1391   1.466       .  S
C1366      C1464   1.494       .  S
H1367      O1368   0.964       .  S
H1369      O1370   0.966       .  S
C1371      C1376   1.538       .  S
C1371      C1590   1.532       .  S
C1371      C1448   1.538       .  S
C1371      C1452   1.514       .  S
C1372      C1400   1.516       .  S
C1372      C1415   1.508       .  S
C1372      C1420   1.529       .  S
C1373      C1384   1.536       .  S
C1373      C1597   1.526       .  S
C1373      C1440   1.522       .  S
C1373      C1444   1.556       .  S
C1374      C1392   1.516   1_545  S
C1374      C1424   1.538   1_545  S
C1374      C1428   1.525       .  S
C1375      C1376   1.377       .  D
C1375      H1377   1.084       .  S
C1376      H1378   1.087       .  S
C1379      C1380   1.352       .  D
C1379      H1381   1.086       .  S
C1380      C1581   1.533   1_554  S
C1380      H1382   1.088       .  S
C1383      C1384   1.329       .  D
C1383      H1385   1.085       .  S
C1384      H1386   1.087       .  S
C1387      C1583   1.527   1_554  S
C1387      C1388   1.367       .  D
C1387      H1389   1.088       .  S
C1388      H1390   1.085       .  S
C1391      C1392   1.356       .  D
C1391      H1393   1.081       .  S
C1392      H1394   1.088       .  S
C1395      C1396   1.362       .  D
C1395      H1397   1.086       .  S
C1396      H1398   1.088       .  S
C1399      C1400   1.360       .  D
C1399      H1401   1.085       .  S
C1400      H1402   1.087       .  S
C1403      C1404   1.348       .  D
C1403      H1405   1.085       .  S
C1404      H1406   1.090       .  S
C1407      C1408   1.362       .  D
C1407      H1409   1.088       .  S
C1408      H1410   1.086       .  S
C1411      C1412   1.354       .  D
C1411      H1413   1.080       .  S
C1412      H1414   1.088       .  S
C1415      C1416   1.359       .  D
C1415      H1417   1.088       .  S
C1416      H1418   1.086       .  S
C1419      C1420   1.351       .  D
C1419      H1421   1.085       .  S
C1420      H1422   1.089   1_655  S
C1423      C1424   1.373       .  D
C1423      H1425   1.084       .  S
C1424      H1426   1.088   1_565  S
C1427      C1428   1.355   1_565  D
C1427      H1429   1.086       .  S
C1428      H1430   1.088       .  S
C1431      C1432   1.355       .  D
C1431      H1433   1.086       .  S
C1435      C1436   1.368       .  D
C1435      H1437   1.088       .  S
C1436      H1438   1.084       .  S
C1439      C1440   1.359       .  D
C1439      H1441   1.084       .  S
C1440      H1442   1.088       .  S
C1443      C1444   1.368       .  D
C1443      H1445   1.085       .  S
C1444      H1446   1.087       .  S
C1447      C1448   1.360       .  D
C1447      H1659   1.086       .  S
C1448      H1450   1.088       .  S
H1449      C1657   1.086       .  S
C1451      C1662   1.356   1_554  D
C1451      H1453   1.081       .  S
C1452      C1661   1.353       .  D
C1452      H1454   1.088       .  S
C1455      C1456   1.351   1_455  D
C1456      H1458   1.089       .  S
C1459      C1460   1.353       .  D
C1459      H1461   1.087   1_655  S
C1463      C1464   1.349       .  D
C1463      H1465   1.090       .  S
C1464      H1466   1.085       .  S
C1467      C1468   1.353       .  D
C1467      H1469   1.088       .  S
C1468      H1470   1.086       .  S
C1471      C1677   1.528       .  S
O1472     Eu1508   2.500       .  S
O1473      C1484   1.292       .  A
O1474      C1485   1.294       .  A
O1475     Eu1480   2.487       .  S
O1475      C1486   1.294       .  A
O1476      C1486   1.283       .  A
O1477     Eu1509   2.447   1_655  S
O1477      C1485   1.291       .  A
O1478      C1484   1.287   1_545  A
O1479     Eu1480   2.350       .  S
O1479      C1483   1.272       .  A
Eu1480     O1490   2.346       .  S
Eu1480     O1481   2.334       .  S
O1482     Eu1509   2.332       .  S
C1483      C1669   1.444       .  S
C1484      C1637   1.480       .  S
C1485      C1629   1.486       .  S
C1486      C1649   1.463       .  S
H1487      O1488   0.968       .  S
O1488     Eu1509   2.365   1_655  S
H1489      O1490   0.964       .  S
O1491     Eu1507   2.505       .  S
O1491      C1514   1.298       .  A
O1492     Eu1508   2.500       .  S
O1493     Eu1509   2.560   1_655  S
O1493      C1516   1.308       .  A
O1494     Eu1510   2.535       .  S
O1494      C1517   1.304       .  A
O1495     Eu1510   2.520       .  S
O1496      C1519   1.308       .  A
O1497     Eu1511   2.477       .  S
O1497      C1520   1.292       .  A
O1500     Eu1510   2.451       .  S
O1500      C1521   1.292   1_655  A
O1501      C1516   1.287       .  A
O1502      C1519   1.282   1_545  A
O1503     Eu1508   2.431       .  S
O1503      C1518   1.288       .  A
O1504     Eu1507   2.395       .  S
O1505      C1514   1.269       .  A
O1506     Eu1511   2.405       .  S
Eu1507     O1525   2.360       .  S
Eu1507     O1513   2.327       .  S
C1514      C1626   1.435       .  S
C1515      C1641   1.482       .  S
C1516      C1653   1.515       .  S
C1517      C1646   1.491       .  S
C1518      C1657   1.497   1_556  S
C1519      C1633   1.496       .  S
C1520      C1661   1.465       .  S
C1521      C1665   1.498       .  S
H1522      O1523   0.965       .  S
H1524      O1525   0.965       .  S
C1526      C1622   1.517       .  S
C1526      C1642   1.524       .  S
C1526      C1645   1.538       .  S
O1527     Eu1563   2.500       .  S
O1527      C1538   1.299       .  A
O1528     Eu1562   2.482       .  S
O1528      C1539   1.293       .  A
O1529     Eu1535   2.505       .  S
O1529      C1540   1.296       .  A
O1530     Eu1535   2.488       .  S
O1530      C1541   1.295       .  A
O1531     Eu1565   2.392       .  S
O1531      C1541   1.283       .  A
O1532     Eu1564   2.434       .  S
O1532      C1540   1.289       .  A
O1533     Eu1535   2.437       .  S
O1533      C1539   1.289       .  A
O1534     Eu1535   2.352       .  S
O1534      C1538   1.273       .  A
Eu1535     O1545   2.359       .  S
Eu1535     O1537   2.354       .  S
Eu1535     O1536   2.341       .  S
Eu1535     O1543   2.338       .  S
O1536     Eu1565   2.366       .  S
O1536     Eu1562   2.351       .  S
O1537     Eu1563   2.360       .  S
O1537     Eu1564   2.329       .  S
C1538      C1678   1.445       .  S
C1539      C1589   1.487       .  S
C1540      C1613   1.497       .  S
C1541      C1621   1.466       .  S
H1542      O1543   0.967       .  S
O1543     Eu1564   2.362       .  S
O1543     Eu1562   2.364       .  S
H1544      O1545   0.964       .  S
O1545     Eu1563   2.331       .  S
O1545     Eu1565   2.348       .  S
O1546     Eu1562   2.490       .  S
O1546      C1569   1.296       .  A
O1547     Eu1563   2.523       .  S
O1547      C1570   1.300       .  A
O1548     Eu1564   2.537       .  S
O1548      C1571   1.304       .  A
O1549     Eu1565   2.526       .  S
O1549      C1572   1.302       .  A
O1550     Eu1565   2.521       .  S
O1550      C1573   1.301       .  A
O1551     Eu1564   2.585       .  S
O1551      C1574   1.313       .  A
O1552     Eu1566   2.496       .  S
O1552      C1575   1.296       .  A
O1553     Eu1566   2.506       .  S
O1553      C1576   1.297       .  A
O1554     Eu1564   2.377       .  S
O1554      C1575   1.281       .  A
O1555     Eu1565   2.438       .  S
O1555      C1576   1.289       .  A
O1556     Eu1562   2.434       .  S
O1556      C1571   1.288       .  A
O1557     Eu1563   2.383       .  S
O1557      C1574   1.280       .  A
O1558     Eu1563   2.435       .  S
O1558      C1573   1.288       .  A
O1559     Eu1562   2.399       .  S
O1559      C1572   1.283       .  A
O1560     Eu1566   2.335       .  S
O1560      C1569   1.270       .  A
O1561     Eu1566   2.373       .  S
O1561      C1570   1.276       .  A
Eu1562     O1580   2.352       .  S
Eu1562     O1568   2.320       .  S
Eu1563     O1567   2.361       .  S
Eu1563     O1578   2.340       .  S
Eu1564     O1578   2.339       .  S
Eu1564     O1568   2.357       .  S
Eu1565     O1567   2.369       .  S
Eu1565     O1580   2.339       .  S
Eu1566     O1567   2.350       .  S
Eu1566     O1578   2.338       .  S
Eu1566     O1580   2.340       .  S
Eu1566     O1568   2.342       .  S
C1569      C1609   1.432       .  S
C1570      C1593   1.460       .  S
C1571      C1618   1.502       .  S
C1572      C1598   1.491       .  S
C1573      C1605   1.495       .  S
C1574      C1585   1.503       .  S
C1575      C1601   1.468       .  S
C1576      C1674   1.495       .  S
H1577      O1578   0.964       .  S
H1579      O1580   0.965       .  S
C1581      C1586   1.548       .  S
C1581      C1658   1.540       .  S
C1581      C1662   1.516       .  S
C1582      C1610   1.519       .  S
C1582      C1625   1.509       .  S
C1582      C1630   1.529       .  S
C1583      C1594   1.535       .  S
C1583      C1650   1.519       .  S
C1583      C1654   1.559       .  S
C1584      C1602   1.517   1_545  S
C1584      C1634   1.539   1_545  S
C1584      C1638   1.523       .  S
C1585      C1586   1.379       .  D
C1585      H1587   1.084       .  S
C1586      H1588   1.087       .  S
C1589      C1590   1.351       .  D
C1589      H1591   1.086       .  S
C1590      H1592   1.088       .  S
C1593      C1594   1.327       .  D
C1593      H1595   1.084       .  S
C1594      H1596   1.088       .  S
C1597      C1598   1.364       .  D
C1597      H1599   1.088       .  S
C1598      H1600   1.085       .  S
C1601      C1602   1.357       .  D
C1601      H1603   1.081       .  S
C1602      H1604   1.088       .  S
C1605      C1606   1.360       .  D
C1605      H1607   1.086       .  S
C1606      H1608   1.089       .  S
C1609      C1610   1.359       .  D
C1609      H1611   1.085       .  S
C1610      H1612   1.087       .  S
C1613      C1614   1.351       .  D
C1613      H1615   1.085       .  S
C1614      H1616   1.090       .  S
C1617      C1618   1.363       .  D
C1617      H1619   1.088       .  S
C1618      H1620   1.086       .  S
C1621      C1622   1.356       .  D
C1621      H1623   1.081       .  S
C1622      H1624   1.088       .  S
C1625      C1626   1.357       .  D
C1625      H1627   1.088       .  S
C1626      H1628   1.086       .  S
C1629      C1630   1.352       .  D
C1629      H1631   1.085       .  S
C1630      H1632   1.089   1_655  S
C1633      C1634   1.372       .  D
C1633      H1635   1.084       .  S
C1634      H1636   1.088   1_565  S
C1637      C1638   1.351   1_565  D
C1637      H1639   1.086       .  S
C1638      H1640   1.088       .  S
C1641      C1642   1.356       .  D
C1641      H1643   1.086       .  S
C1645      C1646   1.369       .  D
C1645      H1647   1.088       .  S
C1646      H1648   1.084       .  S
C1649      C1650   1.358       .  D
C1649      H1651   1.085       .  S
C1650      H1652   1.088       .  S
C1653      C1654   1.371       .  D
C1653      H1655   1.085       .  S
C1654      H1656   1.087       .  S
C1657      C1658   1.364   1_554  D
C1658      H1660   1.088       .  S
C1661      H1663   1.080       .  S
C1662      H1664   1.088       .  S
C1665      C1666   1.351   1_455  D
C1666      H1668   1.090       .  S
C1669      C1670   1.358       .  D
C1669      H1671   1.085   1_655  S
C1673      C1674   1.355       .  D
C1673      H1675   1.089       .  S
C1674      H1676   1.085       .  S
C1677      C1678   1.363       .  D
C1677      H1679   1.087       .  S
C1678      H1680   1.083       .  S
