geometry optimzed in LAMMPS
_audit_creation_date              2020-11-30 
_audit_creation_method            'lammps2cif' 
_symmetry_space_group_name_H-M    'P1' 
_symmetry_Int_Tables_number       1 
_symmetry_cell_setting            triclinic 
loop_ 
_symmetry_equiv_pos_as_xyz 
  x,y,z 
_cell_length_a                    27.87729922 
_cell_length_b                    27.43462056497919 
_cell_length_c                    35.96397778741045 
_cell_angle_alpha                 90.13642927124764 
_cell_angle_beta                  89.8528662917591 
_cell_angle_gamma                 90.03103630251495 
loop_ 
_atom_site_label 
_atom_site_type_symbol 
_atom_site_fract_x 
_atom_site_fract_y 
_atom_site_fract_z 
_atom_site_charge 
C1          C  0.37877908  0.37433479  0.93158102     0.86800
C2          C  0.41442279  0.41433798  0.94294221    -0.53500
C3          C  0.43297055  0.43957567  0.91377062     0.09700
C4          C  0.41738095  0.42020540  0.87578170     0.20700
C5          C  0.34188861  0.40066915  0.90699714    -0.54200
C6          C  0.36227095  0.42553582  0.87794425     0.09800
C7          C  0.40765245  0.34115495  0.90560754    -0.53700
C8          C  0.42939994  0.36510349  0.87697455     0.10400
H9          H  0.42200454  0.42370007  0.97169693     0.14900
H10         H  0.43408763  0.44010852  0.85218935     0.00600
H11         H  0.30414600  0.40361949  0.91421723     0.15200
H12         H  0.41410528  0.30288571  0.91144963     0.15000
C13         C  0.22879081  0.23893132  0.93001737     0.86800
C14         C  0.19191605  0.20644407  0.94971567    -0.53500
C15         C  0.16633060  0.17743305  0.92636857     0.09700
C16         C  0.17978748  0.18344361  0.88527748     0.20700
C17         C  0.26014492  0.20386225  0.90722465    -0.54200
C18         C  0.23466082  0.17372924  0.88434247     0.09800
C19         C  0.19891336  0.26753077  0.90167214    -0.53700
C20         C  0.17207958  0.23860540  0.87863872     0.10400
H21         H  0.18540041  0.20833726  0.97945992     0.14900
H22         H  0.15862422  0.15960757  0.86643836     0.00600
H23         H  0.29876003  0.20120907  0.91059173     0.15200
H24         H  0.19576829  0.30699151  0.90217915     0.15000
C25         C  0.12082803  0.48552092  0.70781499     0.86800
C26         C  0.16137429  0.45361577  0.69240206    -0.53500
C27         C  0.18541492  0.42817192  0.71877264     0.09700
C28         C  0.16634904  0.43601334  0.75816943     0.20700
C29         C  0.08839180  0.45018701  0.72944846    -0.54200
C30         C  0.11244938  0.42334299  0.75542013     0.09800
C31         C  0.14579342  0.51762237  0.73704239    -0.53700
C32         C  0.17088637  0.49162655  0.76296296     0.10400
H33         H  0.17035741  0.45247052  0.66306122     0.14900
H34         H  0.18605149  0.41476510  0.77951009     0.00600
H35         H  0.05071428  0.44468324  0.72308658     0.15200
H36         H  0.15760055  0.05823267  0.73056753     0.15000
C37         C  0.47432650  0.11740608  0.70448788     0.86800
C38         C  0.43713059  0.15388023  0.69023307    -0.53500
C39         C  0.41524808  0.18003366  0.71759499     0.09700
C40         C  0.43094398  0.16608984  0.75680832     0.20700
C41         C  0.50858094  0.14792031  0.72864258    -0.54200
C42         C  0.48575252  0.17442114  0.75563038     0.09800
C43         C  0.44565406  0.08499435  0.73138525    -0.53700
C44         C  0.42162767  0.11060357  0.75834695     0.10400
H45         H  0.42972487  0.15863230  0.66086935     0.14900
H46         H  0.41228910  0.18726960  0.77889073     0.00600
H47         H  0.04667459  0.14987796  0.72437479     0.15200
H48         H  0.44095116  0.04607013  0.72718805     0.15000
O49         O  0.04445707  0.23737726  0.76327403    -0.57500
C50         C  0.09104628  0.38074232  0.77482762     0.75100
O51         O  0.99010396  0.30418842  0.86741159    -0.58700
C52         C  0.00771369  0.21534676  0.77573123     0.75100
C53         C  0.13072294  0.25827765  0.85731225     0.77500
Cd54       Cd  0.04944752  0.29845320  0.81545429     1.37500
O55         O  0.05417025  0.35860769  0.76287631    -0.57500
O56         O  0.11122643  0.23480733  0.83112785    -0.56300
C57         C  0.96894722  0.34227354  0.85612629     0.77400
O58         O  0.11187730  0.29905926  0.86512204    -0.58700
O59         O  0.10961488  0.36366447  0.80401111    -0.57200
O60         O  0.99001933  0.23219959  0.80545391    -0.57100
O61         O  0.98512483  0.36069643  0.82651693    -0.56300
O62         O  0.30351449  0.98590523  0.87427432    -0.57500
C63         C  0.25710640  0.13154062  0.86474906     0.75100
O64         O  0.35990212  0.05061423  0.77048152    -0.58700
C65         C  0.34345334  0.96772949  0.86443788     0.75100
C66         C  0.22008509  0.01151550  0.77954043     0.77500
Cd67       Cd  0.30052932  0.04973734  0.82331936     1.37500
O68         O  0.29902392  0.11636424  0.87206164    -0.57500
O69         O  0.23867626  0.98786352  0.80595877    -0.56300
C70         C  0.38109026  0.08955810  0.78006289     0.77400
O71         O  0.23954068  0.05212688  0.77211815    -0.58700
O72         O  0.23493205  0.10801973  0.84001890    -0.57200
O73         O  0.36345100  0.98783694  0.83698039    -0.57100
O74         O  0.36427932  0.11082965  0.80843956    -0.56300
C75         C  0.38718571  0.38080899  0.20808780     0.86800
C76         C  0.41873277  0.42198445  0.19279269    -0.53500
C77         C  0.44306852  0.44699311  0.21945165     0.09700
C78         C  0.43493998  0.42778936  0.25879872     0.20700
C79         C  0.42137560  0.34824493  0.23013878    -0.54200
C80         C  0.44760469  0.37291489  0.25608804     0.09800
C81         C  0.35499774  0.40640629  0.23689528    -0.53700
C82         C  0.38001497  0.43220508  0.26309181     0.10400
H83         H  0.42039893  0.43085833  0.16343535     0.14900
H84         H  0.45544867  0.44808441  0.28030066     0.00600
H85         H  0.42685727  0.30991691  0.22381242     0.15200
H86         H  0.31628241  0.40882843  0.23409081     0.15000
C87         C  0.25026408  0.23506651  0.20059753     0.86800
C88         C  0.21736359  0.19605717  0.18410780    -0.53500
C89         C  0.19140650  0.17115292  0.20977629     0.09700
C90         C  0.20079900  0.18701957  0.24987689     0.20700
C91         C  0.21678126  0.26758713  0.22412910    -0.54200
C92         C  0.18997756  0.24221122  0.24954905     0.09800
C93         C  0.28151361  0.20694667  0.22838785    -0.53700
C94         C  0.25559447  0.18091445  0.25391095     0.10400
H95         H  0.21387183  0.19029622  0.15436950     0.14900
H96         H  0.17944159  0.16610666  0.27053300     0.00600
H97         H  0.21245430  0.30640373  0.21937833     0.15200
H98         H  0.32028926  0.20442355  0.22602645     0.15000
C99         C  0.49886995  0.13054013  0.42962661     0.86800
C100        C  0.46809470  0.17178805  0.44578670    -0.53500
C101        C  0.44416890  0.19796666  0.41973479     0.09700
C102        C  0.45203124  0.18000755  0.37995107     0.20700
C103        C  0.46408204  0.09937356  0.40672381    -0.54200
C104        C  0.43847140  0.12531504  0.38126207     0.09800
C105        C  0.53165788  0.15641872  0.40133239    -0.53700
C106        C  0.50707354  0.18368696  0.37575268     0.10400
H107        H  0.46651057  0.17980018  0.47533845     0.14900
H108        H  0.43173040  0.20130739  0.35899265     0.00600
H109        H  0.45799173  0.06088637  0.41195415     0.15200
H110        H  0.06946795  0.15757590  0.40581721     0.15000
C111        C  0.13796208  0.47977132  0.43348543     0.86800
C112        C  0.17441460  0.44310115  0.44873723    -0.53500
C113        C  0.20130933  0.42099486  0.42199031     0.09700
C114        C  0.18749669  0.43512186  0.38236325     0.20700
C115        C  0.16782028  0.51449599  0.40912430    -0.54200
C116        C  0.19469641  0.49096326  0.38269496     0.09800
C117        C  0.10712922  0.44955352  0.40680015    -0.53700
C118        C  0.13299791  0.42490438  0.38057286     0.10400
H119        H  0.17954016  0.43690759  0.47825553     0.14900
H120        H  0.20890020  0.41582850  0.36077544     0.00600
H121        H  0.16696595  0.06067078  0.41140426     0.15200
H122        H  0.06872456  0.44465716  0.41041531     0.15000
O123        O  0.37616946  0.06531134  0.37199838    -0.57500
C124        C  0.23297171  0.02087522  0.36029337     0.75100
O125        O  0.31531355  0.11990658  0.26724921    -0.58700
C126        C  0.39656077  0.10426679  0.36141483     0.75100
C127        C  0.35848183  0.97872994  0.28005383     0.77500
Cd128      Cd  0.31616256  0.06153083  0.32055614     1.37500
O129        O  0.25335491  0.05945727  0.37172028    -0.57500
O130        O  0.37858666  0.99723575  0.30817785    -0.56300
C131        C  0.27686002  0.14139776  0.27655966     0.77400
O132        O  0.31961419  0.99873789  0.27007471    -0.58700
O133        O  0.25175543  0.00093128  0.33213617    -0.57200
O134        O  0.37857981  0.12470461  0.33328710    -0.57100
O135        O  0.25632091  0.12572066  0.30548507    -0.56300
O136        O  0.12962980  0.30382131  0.26173523    -0.57500
C137        C  0.98955869  0.34928193  0.27552142     0.75100
O138        O  0.07118310  0.23864594  0.36259830    -0.58700
C139        C  0.14904344  0.26371374  0.27058111     0.75100
C140        C  0.11201025  0.38430774  0.35869469     0.77500
Cd141      Cd  0.07041667  0.30531363  0.31480470     1.37500
O142        O  0.00584153  0.30769774  0.26655617    -0.57500
O143        O  0.13200795  0.36820376  0.32965015    -0.56300
C144        C  0.02866661  0.22429658  0.35664235     0.77400
O145        O  0.07377401  0.36284793  0.36856072    -0.58700
O146        O  0.01175830  0.37127182  0.30110191    -0.57200
O147        O  0.13079286  0.24209926  0.29816381    -0.57100
O148        O  0.00541975  0.24804620  0.33266263    -0.56300
C149        C  0.31741736  0.37677268  0.46489832     0.19000
C150        C  0.35020723  0.37785351  0.43529896    -0.19100
C151        C  0.38868933  0.34592550  0.43499634    -0.11400
C152        C  0.39436152  0.31278055  0.46424489     0.21200
C153        C  0.36554528  0.31635532  0.49607302    -0.20700
C154        C  0.32688581  0.34856862  0.49641231    -0.11600
C155        C  0.42360066  0.26928558  0.45863339    -0.15700
C156        C  0.41713356  0.24252421  0.42771850    -0.29600
C157        C  0.27075340  0.40021802  0.46094157    -0.03900
C158        C  0.24527220  0.39360347  0.42966562    -0.40400
H159        H  0.34405149  0.40084126  0.41131686     0.12400
H160        H  0.41162071  0.34422269  0.41065043     0.12000
H161        H  0.37008718  0.29115889  0.51894625     0.11400
H162        H  0.30209915  0.34825692  0.51966454     0.11700
H163        H  0.44741080  0.25789484  0.48075262     0.14400
H164        H  0.39224032  0.25476928  0.40648701     0.13200
H165        H  0.25751752  0.42209885  0.48391345     0.10900
H166        H  0.25960514  0.37111065  0.40733646     0.12900
C167        C  0.03471911  0.01856280  0.15701266     0.19000
C168        C  0.02656855  0.06718780  0.16711036    -0.19100
C169        C  0.06432275  0.10002261  0.16702621    -0.11400
C170        C  0.11049053  0.08420323  0.15726399     0.21200
C171        C  0.11749926  0.03728063  0.14293932    -0.20700
C172        C  0.07939579  0.00432549  0.14275736    -0.11600
C173        C  0.15177670  0.11458651  0.16634631    -0.15700
C174        C  0.15426345  0.13575236  0.19997510    -0.29600
C175        C  0.48957941  0.99374694  0.16711867    -0.03900
C176        C  0.47053682  0.49158090  0.21248938    -0.40400
H177        H  0.48530004  0.08744168  0.19185635     0.12400
H178        H  0.05825773  0.13682459  0.17698570     0.12000
H179        H  0.15298155  0.02507901  0.13484228     0.11400
H180        H  0.01927342  0.53798210  0.12078496     0.11700
H181        H  0.18071824  0.11751798  0.14624389     0.14400
H182        H  0.12714901  0.12794907  0.22091730     0.13200
H183        H  0.48123350  0.96800071  0.14514818     0.10900
H184        H  0.99596121  0.50152937  0.23415529     0.12900
C185        C  0.50965853  0.08660640  0.52787251     0.19000
C186        C  0.48191391  0.05964498  0.55306539    -0.19100
C187        C  0.48622119  0.06729870  0.59129615    -0.11400
C188        C  0.51841252  0.10240939  0.60515986     0.21200
C189        C  0.54649261  0.12906920  0.57997610    -0.20700
C190        C  0.54234933  0.12124011  0.54173532    -0.11600
C191        C  0.51783287  0.11764242  0.64469095    -0.15700
C192        C  0.49724073  0.09135972  0.67203211    -0.29600
C193        C  0.49708434  0.08433026  0.48796264    -0.03900
C194        C  0.52392338  0.10454963  0.46089215    -0.40400
H195        H  0.45558026  0.03373476  0.54305843     0.12400
H196        H  0.46257255  0.04726336  0.60958887     0.12000
H197        H  0.07004835  0.15695297  0.59071018     0.11400
H198        H  0.56309058  0.14411261  0.52325916     0.11700
H199        H  0.52697562  0.15550195  0.65029377     0.14400
H200        H  0.48972574  0.05287578  0.66816748     0.13200
H201        H  0.45988477  0.07547419  0.48188826     0.10900
H202        H  0.56177241  0.11181956  0.46523894     0.12900
C203        C  0.11518333  0.51809241  0.53249834     0.19000
C204        C  0.13564187  0.54679474  0.56057477    -0.19100
C205        C  0.12341620  0.53918048  0.59785295    -0.11400
C206        C  0.09057077  0.50226256  0.60772413     0.21200
C207        C  0.07078197  0.47319487  0.57960771    -0.20700
C208        C  0.08281939  0.48092024  0.54247038    -0.11600
C209        C  0.08187721  0.48762456  0.64680760    -0.15700
C210        C  0.09807331  0.51301705  0.67623193    -0.29600
C211        C  0.13357105  0.52229402  0.49399358    -0.03900
C212        C  0.11019139  0.50296361  0.46479685    -0.40400
H213        H  0.16132719  0.07642750  0.54999130     0.12400
H214        H  0.14106126  0.56120485  0.61868808     0.12000
H215        H  0.04669738  0.44353603  0.58649053     0.11400
H216        H  0.06812678  0.45626817  0.52193603     0.11700
H217        H  0.07236352  0.44957380  0.65103451     0.14400
H218        H  0.10549789  0.55172017  0.67390091     0.13200
H219        H  0.16482559  0.03904230  0.48671619     0.10900
H220        H  0.07209419  0.49513800  0.46687322     0.12900
C221        C  0.35675855  0.29141172  0.67515315     0.19000
C222        C  0.32830331  0.30015746  0.64386846    -0.19100
C223        C  0.29741652  0.34004416  0.64362959    -0.11400
C224        C  0.29533725  0.37080991  0.67468115     0.21200
C225        C  0.32822785  0.36547283  0.70375311    -0.20700
C226        C  0.35872338  0.32571544  0.70408806    -0.11600
C227        C  0.25380767  0.40228728  0.67970414    -0.15700
C228        C  0.22854810  0.39935318  0.71147237    -0.29600
C229        C  0.38254871  0.24539433  0.67839365    -0.03900
C230        C  0.38366434  0.22172073  0.71098371    -0.40400
H231        H  0.32748670  0.27437707  0.62101159     0.12400
H232        H  0.27241508  0.34439941  0.62086398     0.12000
H233        H  0.32779964  0.39004507  0.72739437     0.11400
H234        H  0.38221616  0.32055599  0.72770331     0.11700
H235        H  0.24244707  0.42440446  0.65643179     0.14400
H236        H  0.24058139  0.37554005  0.73368350     0.13200
H237        H  0.40072070  0.23171086  0.65384230     0.10900
H238        H  0.36406130  0.23601898  0.73477876     0.12900
C239        C  0.27948764  0.26281969  0.02489356     0.19000
C240        C  0.30430040  0.23401441  0.05068738    -0.19100
C241        C  0.29830735  0.24142085  0.08884656    -0.11400
C242        C  0.26726532  0.27800898  0.10206495     0.21200
C243        C  0.24322693  0.30743848  0.07632945    -0.20700
C244        C  0.24938537  0.30022833  0.03815660    -0.11600
C245        C  0.25238481  0.28044933  0.14160128    -0.15700
C246        C  0.27725949  0.25969768  0.16942789    -0.29600
C247        C  0.27905191  0.24655278  0.98557603    -0.03900
C248        C  0.25490400  0.26944495  0.95836756    -0.40400
H249        H  0.32668663  0.20416231  0.04130877     0.12400
H250        H  0.31594904  0.21659701  0.10772508     0.12000
H251        H  0.21842860  0.33516931  0.08582596     0.11400
H252        H  0.22864477  0.32265324  0.01949494     0.11700
H253        H  0.21522333  0.29054706  0.14670311     0.14400
H254        H  0.31503331  0.25120587  0.16582664     0.13200
H255        H  0.28963176  0.20889261  0.98080567     0.10900
H256        H  0.24559857  0.30772261  0.96070884     0.12900
C257        C  0.36856181  0.34189170  0.10907385     0.19000
C258        C  0.39253019  0.31550720  0.08130571    -0.19100
C259        C  0.38275331  0.32406536  0.04384539    -0.11400
C260        C  0.34882894  0.35955481  0.03341953     0.21200
C261        C  0.32515578  0.38611132  0.06123661    -0.20700
C262        C  0.33462407  0.37726116  0.09866012    -0.11600
C263        C  0.34248422  0.37475795  0.99425665    -0.15700
C264        C  0.35934486  0.34867340  0.96538804    -0.29600
C265        C  0.38583265  0.33843344  0.14777892    -0.03900
C266        C  0.36082994  0.35626385  0.17679509    -0.40800
H267        H  0.41997651  0.28932650  0.08860233     0.12400
H268        H  0.40352065  0.30426790  0.02336876     0.12000
H269        H  0.29990432  0.41448807  0.05395907     0.11400
H270        H  0.31691738  0.39994697  0.11913751     0.11700
H271        H  0.33208143  0.41244755  0.98956619     0.14400
H272        H  0.36760264  0.31030274  0.96876093     0.13200
H273        H  0.42381772  0.33076376  0.15135439     0.10900
H274        H  0.32239035  0.36187947  0.17465055     0.12900
C275        C  0.08036743  0.09849851  0.98252003     0.19000
C276        C  0.03500905  0.10597285  0.96679291    -0.19100
C277        C  0.00248626  0.06778272  0.96504389    -0.11400
C278        C  0.01508357  0.02191079  0.97909592     0.21200
C279        C  0.05744283  0.01654363  0.99958905    -0.20700
C280        C  0.09018985  0.05499095  0.00133622    -0.11600
C281        C  0.94606210  0.51817888  0.94519941    -0.15700
C282        C  0.45639593  0.48720882  0.91790799    -0.29600
C283        C  0.11977128  0.13195775  0.97374840    -0.03900
C284        C  0.12604872  0.14674826  0.93844214    -0.40400
H285        H  0.02627544  0.14012377  0.95334418     0.12400
H286        H  0.46952384  0.07313608  0.95135283     0.12000
H287        H  0.98045222  0.56041960  0.00740025     0.11400
H288        H  0.12479759  0.04920089  0.01422148     0.11700
H289        H  0.92127810  0.50772982  0.96710976     0.14400
H290        H  0.47609945  0.99921546  0.91391815     0.13200
H291        H  0.14645464  0.13938016  0.99493353     0.10900
H292        H  0.10149024  0.13447549  0.91693968     0.12900
C293        C  0.37741286  0.86740110  0.93413659     0.86800
C294        C  0.41222566  0.90456827  0.95096456    -0.53500
C295        C  0.43552829  0.93247855  0.92550497     0.09700
C296        C  0.42231362  0.92039927  0.88517176     0.20700
C297        C  0.34354133  0.89794260  0.90978661    -0.54200
C298        C  0.36703739  0.92679933  0.88457755     0.09800
C299        C  0.40865477  0.83757556  0.90722976    -0.53700
C300        C  0.43322326  0.86515379  0.88191149     0.10400
H301        H  0.41644449  0.90909117  0.98074587     0.14900
H302        H  0.44172974  0.94324590  0.86458017     0.00600
H303        H  0.30501396  0.89948723  0.91419307     0.15200
H304        H  0.41383309  0.79850258  0.90991591     0.15000
C305        C  0.22557256  0.73321300  0.93042005     0.86800
C306        C  0.18441311  0.70118115  0.94488524    -0.53500
C307        C  0.16025144  0.67739811  0.91749530     0.09700
C308        C  0.17987867  0.68651434  0.87844004     0.20700
C309        C  0.25766060  0.69886313  0.90779677    -0.54200
C310        C  0.23368822  0.67360990  0.88101714     0.09800
C311        C  0.20091645  0.76697279  0.90201136    -0.53700
C312        C  0.17563216  0.74231309  0.87519722     0.10400
H313        H  0.17408466  0.69944924  0.97400045     0.14900
H314        H  0.16022363  0.66619190  0.85646482     0.00600
H315        H  0.29534723  0.69293525  0.91390688     0.15200
H316        H  0.19869567  0.80623018  0.90557691     0.15000
C317        C  0.12501604  0.98834441  0.70449207     0.86800
C318        C  0.16249090  0.95414892  0.68741516    -0.53500
C319        C  0.18622032  0.92646499  0.71255824     0.09700
C320        C  0.17138956  0.93608477  0.75288764     0.20700
C321        C  0.09225664  0.95512088  0.72776758    -0.54200
C322        C  0.11654398  0.92698032  0.75282748     0.09800
C323        C  0.15395294  0.01891009  0.73256353    -0.53700
C324        C  0.17947586  0.99148223  0.75744544     0.10400
H325        H  0.17026558  0.95310598  0.65781564     0.14900
H326        H  0.19144330  0.91342313  0.77314346     0.00600
H327        H  0.05390411  0.95191987  0.72312825     0.15200
H328        H  0.14875045  0.55695291  0.73443984     0.15000
C329        C  0.47461937  0.61580028  0.70667058     0.86800
C330        C  0.43724297  0.65071286  0.69091803    -0.53500
C331        C  0.41370353  0.67745898  0.71696092     0.09700
C332        C  0.42941542  0.66702353  0.75689532     0.20700
C333        C  0.50791278  0.64834442  0.73023782    -0.54200
C334        C  0.48428842  0.67637279  0.75604359     0.09800
C335        C  0.44604005  0.58461691  0.73443567    -0.53700
C336        C  0.42120655  0.61135929  0.76035845     0.10400
H337        H  0.43118190  0.65470887  0.66126884     0.14900
H338        H  0.40973068  0.68911480  0.77788968     0.00600
H339        H  0.04640563  0.65225962  0.72459041     0.15200
H340        H  0.44164375  0.54547751  0.73131958     0.15000
O341        O  0.04697695  0.73800432  0.76451333    -0.57500
C342        C  0.09393350  0.88572063  0.77318284     0.75100
O343        O  0.99479009  0.80605654  0.86831210    -0.58700
C344        C  0.00745785  0.71955372  0.77497244     0.75100
C345        C  0.13474231  0.76431633  0.85470371     0.77500
Cd346      Cd  0.05183443  0.80373217  0.81449346     1.37500
O347        O  0.05462380  0.86638953  0.76321769    -0.57500
O348        O  0.11818209  0.74474647  0.82560325    -0.56300
C349        C  0.97342095  0.84513618  0.85942691     0.77400
O350        O  0.11242435  0.80159680  0.86639363    -0.58700
O351        O  0.11390523  0.86676224  0.80105608    -0.57200
O352        O  0.98773766  0.74056025  0.80230057    -0.57100
O353        O  0.98909443  0.86628241  0.83065834    -0.56300
O354        O  0.30540876  0.49184273  0.87391074    -0.57500
C355        C  0.25558242  0.63224081  0.86072182     0.75100
O356        O  0.35562108  0.55489123  0.76844889    -0.58700
C357        C  0.33779810  0.46619104  0.85855126     0.75100
C358        C  0.21256542  0.51262693  0.78278409     0.77500
Cd359      Cd  0.29671284  0.55038495  0.82072765     1.37500
O360        O  0.28982468  0.60745947  0.87418485    -0.57500
O361        O  0.22837811  0.49370404  0.81229229    -0.56300
C362        C  0.37956248  0.59065701  0.78094609     0.77400
O363        O  0.23617991  0.54838686  0.76997355    -0.58700
O364        O  0.24020381  0.61900253  0.82929407    -0.57200
O365        O  0.35065641  0.47920628  0.82637575    -0.57100
O366        O  0.36472391  0.60886890  0.81117008    -0.56300
C367        C  0.38402701  0.88152455  0.20629452     0.86800
C368        C  0.41596587  0.92043480  0.18846775    -0.53500
C369        C  0.44299779  0.94607549  0.21311492     0.09700
C370        C  0.43496785  0.93111595  0.25375793     0.20700
C371        C  0.41824824  0.84979545  0.22922884    -0.54200
C372        C  0.44590480  0.87559243  0.25372772     0.09800
C373        C  0.35365076  0.91018364  0.23450145    -0.53700
C374        C  0.38008559  0.93741966  0.25892713     0.10400
H375        H  0.41555596  0.92768584  0.15882330     0.14900
H376        H  0.45686203  0.95254179  0.27373706     0.00600
H377        H  0.42229394  0.81085116  0.22475924     0.15200
H378        H  0.31481836  0.91258912  0.23283575     0.15000
C379        C  0.25087387  0.72971681  0.20537536     0.86800
C380        C  0.21499105  0.69221000  0.19050684    -0.53500
C381        C  0.18823864  0.67048212  0.21734159     0.09700
C382        C  0.20121504  0.68609995  0.25685533     0.20700
C383        C  0.22046414  0.76486581  0.22921993    -0.54200
C384        C  0.19333463  0.74184057  0.25569442     0.09800
C385        C  0.28176360  0.70061652  0.23258433    -0.53700
C386        C  0.25582322  0.67659936  0.25913528     0.10400
H387        H  0.21045813  0.68476922  0.16105972     0.14900
H388        H  0.17973406  0.66716078  0.27852522     0.00600
H389        H  0.21726113  0.80352337  0.22330351     0.15200
H390        H  0.32017708  0.69577570  0.22903918     0.15000
C391        C  0.50134588  0.63046354  0.43066321     0.86800
C392        C  0.46864628  0.66981681  0.44695088    -0.53500
C393        C  0.44287633  0.69465987  0.42120588     0.09700
C394        C  0.45251693  0.67855420  0.38111521     0.20700
C395        C  0.46813409  0.59809466  0.40715222    -0.54200
C396        C  0.44157365  0.62324019  0.38167649     0.09800
C397        C  0.53301379  0.65852860  0.40278146    -0.53700
C398        C  0.50740799  0.68490596  0.37720036     0.10400
H399        H  0.46763899  0.67800209  0.47648265     0.14900
H400        H  0.43135184  0.69931040  0.36035029     0.00600
H401        H  0.46336615  0.55939190  0.41225361     0.15200
H402        H  0.07310518  0.66122094  0.40521958     0.15000
C403        C  0.13227587  0.98733924  0.42906315     0.86800
C404        C  0.16757646  0.94993242  0.44451869    -0.53500
C405        C  0.19440734  0.92701450  0.41817862     0.09700
C406        C  0.18281714  0.94258041  0.37845708     0.20700
C407        C  0.16365017  0.02195758  0.40561327    -0.54200
C408        C  0.19109694  0.99829311  0.37948679     0.09800
C409        C  0.10189669  0.95800460  0.40136325    -0.53700
C410        C  0.12829381  0.93332709  0.37535797     0.10400
H411        H  0.17205739  0.94424392  0.47411853     0.14900
H412        H  0.20458137  0.92311854  0.35717569     0.00600
H413        H  0.17081331  0.55332189  0.41459170     0.15200
H414        H  0.06343988  0.95303181  0.40451163     0.15000
O415        O  0.38072618  0.56147999  0.37318547    -0.57500
C416        C  0.23596285  0.51411875  0.36337064     0.75100
O417        O  0.31421723  0.61386092  0.27066878    -0.58700
C418        C  0.39969758  0.60102834  0.36237206     0.75100
C419        C  0.35823101  0.47356466  0.28374219     0.77500
Cd420      Cd  0.31771453  0.55657672  0.32384741     1.37500
O421        O  0.25719304  0.55167917  0.37584277    -0.57500
O422        O  0.37572811  0.48881596  0.31396976    -0.56300
C423        C  0.27673109  0.63625348  0.28115755     0.77400
O424        O  0.32272604  0.49723574  0.27122190    -0.58700
O425        O  0.25324639  0.49587074  0.33402185    -0.57200
O426        O  0.37999565  0.62115307  0.33480260    -0.57100
O427        O  0.25736052  0.62122443  0.31080076    -0.56300
O428        O  0.13031660  0.80243900  0.26162465    -0.57500
C429        C  0.98693803  0.85137698  0.27386315     0.75100
O430        O  0.06854590  0.74592630  0.36448858    -0.58700
C431        C  0.15150293  0.76515153  0.27444238     0.75100
C432        C  0.10820155  0.89134175  0.35439496     0.77500
Cd433      Cd  0.06893469  0.80832286  0.31342586     1.37500
O434        O  0.00622709  0.81183791  0.26307096    -0.57500
O435        O  0.12667460  0.87657043  0.32430733    -0.56300
C436        C  0.02932452  0.72569115  0.35559832     0.77400
O437        O  0.07263726  0.86707310  0.36634151    -0.58700
O438        O  0.00612478  0.87152763  0.30169213    -0.57200
O439        O  0.13367434  0.74729606  0.30366654    -0.57100
O440        O  0.00766904  0.74424335  0.32822045    -0.56300
C441        C  0.28404429  0.84739757  0.46908326     0.19000
C442        C  0.32860281  0.86011658  0.45373175    -0.19100
C443        C  0.36630934  0.82733958  0.45519155    -0.11400
C444        C  0.35950998  0.78176414  0.47192377     0.21200
C445        C  0.31711224  0.77174482  0.49138211    -0.20700
C446        C  0.27924742  0.80471967  0.48997505    -0.11600
C447        C  0.39348707  0.74237649  0.46497285    -0.15700
C448        C  0.41061971  0.73504811  0.43047542    -0.29600
C449        C  0.24151761  0.87631811  0.46099183    -0.03900
C450        C  0.23467163  0.89479369  0.42690771    -0.40400
H451        H  0.33342834  0.89414630  0.43896152     0.12400
H452        H  0.39969990  0.83620587  0.44127541     0.12000
H453        H  0.31193793  0.73691285  0.50494769     0.11400
H454        H  0.24522101  0.79524548  0.50267487     0.11700
H455        H  0.39995904  0.71651755  0.48715795     0.14400
H456        H  0.39933950  0.75847790  0.40780019     0.13200
H457        H  0.21445288  0.87933903  0.48255819     0.10900
H458        H  0.25999409  0.88695354  0.40466633     0.12900
C459        C  0.99663573  0.55918556  0.17609086     0.19000
C460        C  0.00324505  0.59198087  0.20553659    -0.19100
C461        C  0.04173025  0.62379914  0.20485150    -0.11400
C462        C  0.07371846  0.62288021  0.17474100     0.21200
C463        C  0.06346027  0.59491744  0.14315790    -0.20700
C464        C  0.02466001  0.56286206  0.14384146    -0.11600
C465        C  0.12017331  0.64671755  0.17821445    -0.15700
C466        C  0.14571139  0.64109192  0.20953282    -0.29600
C467        C  0.46461776  0.51891426  0.18191450    -0.03900
C468        C  0.47495676  0.98633421  0.20235101    -0.40400
H469        H  0.47984993  0.59284609  0.23062498     0.12400
H470        H  0.04844941  0.64671497  0.22887014     0.12000
H471        H  0.08761424  0.59480726  0.11951167     0.11400
H472        H  0.08574916  0.96687055  0.13451259     0.11700
H473        H  0.13263768  0.66902293  0.15528462     0.14400
H474        H  0.13211653  0.61826955  0.23187150     0.13200
H475        H  0.44070489  0.50821709  0.15962669     0.10900
H476        H  0.99316979  0.00496137  0.22180936     0.12900
C477        C  0.51348750  0.58470087  0.52932772     0.19000
C478        C  0.48770861  0.55495707  0.55408470    -0.19100
C479        C  0.49099477  0.56200038  0.59261849    -0.11400
C480        C  0.52024080  0.59924506  0.60723150     0.21200
C481        C  0.54656630  0.62837067  0.58242796    -0.20700
C482        C  0.54346266  0.62117376  0.54401266    -0.11600
C483        C  0.51893331  0.61400590  0.64707859    -0.15700
C484        C  0.49770303  0.58843342  0.67462701    -0.29600
C485        C  0.50108907  0.58331826  0.48915484    -0.03900
C486        C  0.52715838  0.60532531  0.46226230    -0.40400
H487        H  0.46357325  0.52728802  0.54350109     0.12400
H488        H  0.46909749  0.53951962  0.61055715     0.12000
H489        H  0.07052399  0.65732121  0.59243037     0.11400
H490        H  0.56256927  0.64606208  0.52599962     0.11700
H491        H  0.52864932  0.65166485  0.65284326     0.14400
H492        H  0.48905459  0.55017217  0.67091406     0.13200
H493        H  0.46440158  0.57278596  0.48280235     0.10900
H494        H  0.56457442  0.61435164  0.46698337     0.12900
C495        C  0.11030148  0.02367883  0.52930905     0.19000
C496        C  0.13386731  0.05013975  0.55723289    -0.19100
C497        C  0.12338372  0.04213366  0.59476766    -0.11400
C498        C  0.08901995  0.00709402  0.60532528     0.21200
C499        C  0.06593860  0.98011548  0.57739881    -0.20700
C500        C  0.07626775  0.98828980  0.53984032    -0.11600
C501        C  0.08216318  0.99222339  0.64471618    -0.15700
C502        C  0.10113481  0.01675783  0.67373298    -0.29600
C503        C  0.12752588  0.02838396  0.49033190    -0.03900
C504        C  0.10412703  0.00951503  0.46086514    -0.40400
H505        H  0.16179411  0.57458142  0.55368505     0.12400
H506        H  0.14367364  0.06227402  0.61525356     0.12000
H507        H  0.04050740  0.95182507  0.58471074     0.11400
H508        H  0.05881519  0.96547257  0.51939077     0.11700
H509        H  0.07156429  0.95449363  0.64904283     0.14400
H510        H  0.10953487  0.05524222  0.67131343     0.13200
H511        H  0.17109192  0.53234000  0.49076352     0.10900
H512        H  0.06625355  0.00075281  0.46302866     0.12900
C513        C  0.32485020  0.75567512  0.66458085     0.19000
C514        C  0.27772487  0.74724100  0.65293558    -0.19100
C515        C  0.24562629  0.78606796  0.65109660    -0.11400
C516        C  0.26093801  0.83298798  0.66085593     0.21200
C517        C  0.30935688  0.84200655  0.66851210    -0.20700
C518        C  0.34133872  0.80341030  0.67017379    -0.11600
C519        C  0.22528983  0.87057967  0.66840256    -0.15700
C520        C  0.22371675  0.89153820  0.70215455    -0.29600
C521        C  0.35525508  0.71463307  0.67470911    -0.03900
C522        C  0.37876297  0.71509266  0.70725438    -0.40400
H523        H  0.26495171  0.71046054  0.64814698     0.12400
H524        H  0.20821471  0.77897069  0.64504252     0.12000
H525        H  0.32161572  0.87838715  0.67544152     0.11400
H526        H  0.37819722  0.81037870  0.67808499     0.11700
H527        H  0.19720000  0.87654338  0.64808045     0.14400
H528        H  0.24913240  0.88074813  0.72347651     0.13200
H529        H  0.35634267  0.68322051  0.65631472     0.10900
H530        H  0.37297260  0.74447035  0.72708691     0.12900
C531        C  0.27190487  0.74873971  0.02888285     0.19000
C532        C  0.29972307  0.72240799  0.05435184    -0.19100
C533        C  0.29617380  0.73191184  0.09248308    -0.11400
C534        C  0.26446144  0.76793890  0.10581676     0.21200
C535        C  0.23711648  0.79444404  0.08025351    -0.20700
C536        C  0.24081331  0.78513567  0.04225040    -0.11600
C537        C  0.25239500  0.77300880  0.14575887    -0.15700
C538        C  0.27767229  0.75200046  0.17318627    -0.29600
C539        C  0.26947926  0.73182483  0.98985271    -0.03900
C540        C  0.25018525  0.75852138  0.96228592    -0.40400
H541        H  0.32296759  0.69333768  0.04482172     0.12400
H542        H  0.31659568  0.70932601  0.11129206     0.12000
H543        H  0.21155114  0.82140264  0.08982997     0.11400
H544        H  0.21728982  0.80488998  0.02377496     0.11700
H545        H  0.21607812  0.78510667  0.15193939     0.14400
H546        H  0.31483987  0.74164060  0.16884585     0.13200
H547        H  0.27601786  0.69323713  0.98505348     0.10900
H548        H  0.24554313  0.79760183  0.96538648     0.12900
C549        C  0.36108230  0.83556979  0.10913831     0.19000
C550        C  0.38425017  0.80709216  0.08209895    -0.19100
C551        C  0.37360092  0.81289129  0.04438604    -0.11400
C552        C  0.33957708  0.84771619  0.03290098     0.21200
C553        C  0.31638318  0.87599782  0.06003929    -0.20700
C554        C  0.32685365  0.87004639  0.09767644    -0.11600
C555        C  0.33315659  0.86159941  0.99332245    -0.15700
C556        C  0.35441976  0.83801730  0.96486586    -0.29600
C557        C  0.37927777  0.83471587  0.14781087    -0.03900
C558        C  0.35580698  0.85548251  0.17653973    -0.40800
H559        H  0.41167045  0.78125460  0.09011530     0.12400
H560        H  0.39366126  0.79137841  0.02451526     0.12000
H561        H  0.29106702  0.90395553  0.05199820     0.11400
H562        H  0.30965873  0.89424629  0.11738412     0.11700
H563        H  0.32070566  0.89860023  0.98845991     0.14400
H564        H  0.36479043  0.80010164  0.96764452     0.13200
H565        H  0.41707531  0.82601784  0.15114723     0.10900
H566        H  0.31750477  0.86224489  0.17485806     0.12900
C567        C  0.03608775  0.64087769  0.95035624     0.19000
C568        C  0.01142793  0.63105650  0.91720964    -0.19100
C569        C  0.97836615  0.59332010  0.91597771    -0.11400
C570        C  0.96941606  0.56578864  0.94802833     0.21200
C571        C  0.98809609  0.58084055  0.98232481    -0.20700
C572        C  0.02169771  0.61851525  0.98349609    -0.11600
C573        C  0.98628335  0.97887060  0.96982995    -0.15700
C574        C  0.46761217  0.97299534  0.93555648    -0.29600
C575        C  0.08236460  0.66598721  0.94881402    -0.03900
C576        C  0.11453681  0.65226499  0.92295530    -0.40400
H577        H  0.02115999  0.64937775  0.89160896     0.12400
H578        H  0.46047952  0.58448509  0.89104853     0.12000
H579        H  0.06692236  0.98161318  0.01148090     0.11400
H580        H  0.03998889  0.62647688  0.00934998     0.11700
H581        H  0.98372786  0.95006665  0.99034394     0.14400
H582        H  0.48076412  0.49863855  0.89598264     0.13200
H583        H  0.09072714  0.69342947  0.96961022     0.10900
H584        H  0.10532457  0.62434466  0.90270161     0.12900
C585        C  0.87888166  0.37531259  0.93213794     0.86800
C586        C  0.91503971  0.41496826  0.94316115    -0.53500
C587        C  0.93373518  0.43970087  0.91379055     0.09700
C588        C  0.91763155  0.42032303  0.87596552     0.20700
C589        C  0.84212904  0.40186222  0.90754624    -0.54200
C590        C  0.86260860  0.42633086  0.87832548     0.09800
C591        C  0.90726495  0.34162754  0.90619791    -0.53700
C592        C  0.92904505  0.36513894  0.87736300     0.10400
H593        H  0.92290408  0.42450848  0.97183650     0.14900
H594        H  0.93444978  0.43985205  0.85223658     0.00600
H595        H  0.80444769  0.40520388  0.91485420     0.15200
H596        H  0.91346672  0.30336437  0.91221959     0.15000
C597        C  0.72933328  0.23865715  0.92997669     0.86800
C598        C  0.69219300  0.20634888  0.94953744    -0.53500
C599        C  0.66655717  0.17756197  0.92609891     0.09700
C600        C  0.67998513  0.18378463  0.88501894     0.20700
C601        C  0.76044556  0.20343381  0.90712265    -0.54200
C602        C  0.73475680  0.17366171  0.88409188     0.09800
C603        C  0.69970751  0.26765150  0.90166599    -0.53700
C604        C  0.67270023  0.23904873  0.87850442     0.10400
H605        H  0.68571675  0.20793415  0.97930327     0.14900
H606        H  0.65866796  0.16017967  0.86611556     0.00600
H607        H  0.79901315  0.20035646  0.91060296     0.15200
H608        H  0.69691406  0.30713635  0.90223892     0.15000
C609        C  0.62130971  0.48619358  0.70672259     0.86800
C610        C  0.66109882  0.45397390  0.69046375    -0.53500
C611        C  0.68525964  0.42762762  0.71626081     0.09700
C612        C  0.66721822  0.43525844  0.75602844     0.20700
C613        C  0.58882396  0.45090352  0.72841934    -0.54200
C614        C  0.61308261  0.42337109  0.75389003     0.09800
C615        C  0.64718017  0.51741746  0.73595646    -0.53700
C616        C  0.67239779  0.49076536  0.76134578     0.10400
H617        H  0.66944209  0.45324283  0.66100732     0.14900
H618        H  0.68711957  0.41345653  0.77692586     0.00600
H619        H  0.55091047  0.44612076  0.72257863     0.15200
H620        H  0.65668765  0.05781492  0.73178798     0.15000
C621        C  0.97468065  0.11619854  0.70493498     0.86800
C622        C  0.93823558  0.15280004  0.68971594    -0.53500
C623        C  0.91559901  0.17938020  0.71643375     0.09700
C624        C  0.93002802  0.16583686  0.75606625     0.20700
C625        C  0.00840078  0.14668012  0.72955322    -0.54200
C626        C  0.98494507  0.17370474  0.75591719     0.09800
C627        C  0.94495949  0.08431341  0.73147823    -0.53700
C628        C  0.92037291  0.11039984  0.75784541     0.10400
H629        H  0.93172666  0.15715396  0.66018929     0.14900
H630        H  0.91082466  0.18740148  0.77763972     0.00600
H631        H  0.54662406  0.15162311  0.72268722     0.15200
H632        H  0.94031688  0.04532480  0.72759002     0.15000
O633        O  0.54512389  0.23836205  0.76246872    -0.57500
C634        C  0.59151310  0.38111440  0.77362159     0.75100
O635        O  0.48999833  0.30383922  0.86628826    -0.58700
C636        C  0.50863627  0.21616340  0.77519707     0.75100
C637        C  0.63164135  0.25906672  0.85695471     0.77500
Cd638      Cd  0.55030387  0.29920057  0.81485809     1.37500
O639        O  0.55416002  0.35936170  0.76216462    -0.57500
O640        O  0.61267512  0.23602199  0.83031978    -0.56300
C641        C  0.46948431  0.34259881  0.85565304     0.77400
O642        O  0.61244070  0.29960484  0.86502338    -0.58700
O643        O  0.61047334  0.36394565  0.80262272    -0.57200
O644        O  0.49122092  0.23291568  0.80503833    -0.57100
O645        O  0.48648629  0.36195315  0.82667167    -0.56300
O646        O  0.80377386  0.98642115  0.87465628    -0.57500
C647        C  0.75686912  0.13131787  0.86451113     0.75100
O648        O  0.85937330  0.04996692  0.77062032    -0.58700
C649        C  0.84357427  0.96807129  0.86468142     0.75100
C650        C  0.71957477  0.01057208  0.77990442     0.77500
Cd651      Cd  0.80002916  0.04939164  0.82328291     1.37500
O652        O  0.79874673  0.11601008  0.87177237    -0.57500
O653        O  0.73824107  0.98701365  0.80634312    -0.56300
C654        C  0.87987874  0.08950812  0.77964105     0.77400
O655        O  0.73903195  0.05111696  0.77232291    -0.58700
O656        O  0.73447582  0.10779608  0.83988720    -0.57200
O657        O  0.86337016  0.98787289  0.83699567    -0.57100
O658        O  0.86260171  0.11130354  0.80761009    -0.56300
C659        C  0.88682207  0.37989117  0.20900990     0.86800
C660        C  0.91831731  0.42091290  0.19349694    -0.53500
C661        C  0.94319718  0.44574317  0.21990458     0.09700
C662        C  0.93536689  0.42667375  0.25936086     0.20700
C663        C  0.92117865  0.34715148  0.23076441    -0.54200
C664        C  0.94771979  0.37169510  0.25660473     0.09800
C665        C  0.85510079  0.40549850  0.23810068    -0.53700
C666        C  0.88047009  0.43131329  0.26407438     0.10400
H667        H  0.91966894  0.42966369  0.16411580     0.14900
H668        H  0.95622535  0.44687920  0.28070726     0.00600
H669        H  0.92637435  0.30878412  0.22443091     0.15200
H670        H  0.81635464  0.40796791  0.23559916     0.15000
C671        C  0.75191807  0.23711102  0.20052884     0.86800
C672        C  0.71746579  0.19970413  0.18369685    -0.53500
C673        C  0.69068361  0.17531547  0.20916064     0.09700
C674        C  0.70170130  0.18936651  0.24944900     0.20700
C675        C  0.71981146  0.27009350  0.22486759    -0.54200
C676        C  0.69249923  0.24485097  0.25006051     0.09800
C677        C  0.78268389  0.20725325  0.22753530    -0.53700
C678        C  0.75643126  0.18137290  0.25289862     0.10400
H679        H  0.71323843  0.19532160  0.15391308     0.14900
H680        H  0.68003190  0.16862892  0.27000770     0.00600
H681        H  0.71628332  0.30907533  0.22050257     0.15200
H682        H  0.82138699  0.20396302  0.22498584     0.15000
C683        C  0.99793736  0.12996480  0.43110289     0.86800
C684        C  0.96686427  0.17074131  0.44760025    -0.53500
C685        C  0.94288046  0.19722475  0.42177404     0.09700
C686        C  0.95101852  0.17996603  0.38182556     0.20700
C687        C  0.96340949  0.09895240  0.40783399    -0.54200
C688        C  0.93776496  0.12519409  0.38255345     0.09800
C689        C  0.03068303  0.15641540  0.40316178    -0.53700
C690        C  0.00605578  0.18384642  0.37777012     0.10400
H691        H  0.96518936  0.17821240  0.47722203     0.14900
H692        H  0.93070993  0.20151255  0.36101921     0.00600
H693        H  0.95759362  0.06032359  0.41262626     0.15200
H694        H  0.57043610  0.15760187  0.40401438     0.15000
C695        C  0.63796671  0.48159260  0.43328071     0.86800
C696        C  0.67421913  0.44491417  0.44878436    -0.53500
C697        C  0.70135102  0.42265353  0.42225031     0.09700
C698        C  0.68780477  0.43665394  0.38250328     0.20700
C699        C  0.66803637  0.51617694  0.40897855    -0.54200
C700        C  0.69503521  0.49249618  0.38272079     0.09800
C701        C  0.60726480  0.45130713  0.40652614    -0.53700
C702        C  0.63327444  0.42651732  0.38045195     0.10400
H703        H  0.67887328  0.43879794  0.47834673     0.14900
H704        H  0.70933254  0.41725627  0.36104641     0.00600
H705        H  0.66742402  0.06063942  0.41140261     0.15200
H706        H  0.56881303  0.44656550  0.40993877     0.15000
O707        O  0.87551407  0.06538569  0.37252812    -0.57500
C708        C  0.73343626  0.02095409  0.36017584     0.75100
O709        O  0.81634029  0.12068235  0.26701237    -0.58700
C710        C  0.89624439  0.10425605  0.36218621     0.75100
C711        C  0.86025958  0.97940451  0.27913171     0.77500
Cd712      Cd  0.81674536  0.06169367  0.32014870     1.37500
O713        O  0.75419326  0.05929291  0.37165699    -0.57500
O714        O  0.87994214  0.99727040  0.30767992    -0.56300
C715        C  0.77743790  0.14174037  0.27574996     0.77400
O716        O  0.82153001  0.99968369  0.26917389    -0.58700
O717        O  0.75158300  0.00143403  0.33158436    -0.57200
O718        O  0.87900126  0.12467355  0.33377049    -0.57100
O719        O  0.75648007  0.12572738  0.30438816    -0.56300
O720        O  0.63173202  0.30642632  0.26157486    -0.57500
C721        C  0.48975145  0.35083710  0.27485396     0.75100
O722        O  0.57149775  0.24004827  0.36175908    -0.58700
C723        C  0.65115808  0.26638961  0.27062285     0.75100
C724        C  0.61230058  0.38605619  0.35834683     0.77500
Cd725      Cd  0.57109253  0.30704140  0.31399114     1.37500
O726        O  0.50655684  0.30958468  0.26558611    -0.57500
O727        O  0.63226380  0.37031832  0.32917367    -0.56300
C728        C  0.52957979  0.22459441  0.35490905     0.77400
O729        O  0.57413603  0.36434600  0.36811372    -0.58700
O730        O  0.51174107  0.37278584  0.30056728    -0.57200
O731        O  0.63226786  0.24455027  0.29782923    -0.57100
O732        O  0.50669405  0.24780812  0.33040797    -0.56300
C733        C  0.81545356  0.37535993  0.46708446     0.19000
C734        C  0.84932784  0.37684040  0.43823843    -0.19100
C735        C  0.88769333  0.34478251  0.43844816    -0.11400
C736        C  0.89210079  0.31099212  0.46739409     0.21200
C737        C  0.86237949  0.31433246  0.49873740    -0.20700
C738        C  0.82387362  0.34676331  0.49860043    -0.11600
C739        C  0.92099526  0.26724296  0.46174885    -0.15700
C740        C  0.91566760  0.24158328  0.43013977    -0.29600
C741        C  0.76906729  0.39929590  0.46247862    -0.03900
C742        C  0.74507887  0.39486545  0.43024697    -0.40400
H743        H  0.84420514  0.40032251  0.41439128     0.12400
H744        H  0.91148294  0.34343685  0.41458808     0.12000
H745        H  0.86607002  0.28878960  0.52148076     0.11400
H746        H  0.79841021  0.34631324  0.52140748     0.11700
H747        H  0.94370124  0.25492957  0.48425983     0.14400
H748        H  0.89168449  0.25471271  0.40859134     0.13200
H749        H  0.75476166  0.41962863  0.48586923     0.10900
H750        H  0.76033286  0.37357517  0.40760592     0.12900
C751        C  0.52269717  0.03357504  0.15847532     0.19000
C752        C  0.51715584  0.07906109  0.17575700    -0.19100
C753        C  0.55438114  0.11250803  0.17481111    -0.11400
C754        C  0.59755577  0.10039929  0.15694574     0.21200
C755        C  0.60053343  0.05802091  0.13530278    -0.20700
C756        C  0.56291285  0.02448872  0.13604235    -0.11600
C757        C  0.64096238  0.12859739  0.16460481    -0.15700
C758        C  0.64991900  0.14405016  0.19940253    -0.29600
C759        C  0.99896164  0.98152868  0.16610334    -0.03900
C760        C  0.97133520  0.48978411  0.21252492    -0.40400
H761        H  0.99178506  0.07882887  0.17728068     0.12400
H762        H  0.55073940  0.14632921  0.19017307     0.12000
H763        H  0.63331049  0.04898023  0.12058422     0.11400
H764        H  0.51706593  0.54005967  0.12112637     0.11700
H765        H  0.66672594  0.13338930  0.14228112     0.14400
H766        H  0.62553677  0.13450991  0.22186604     0.13200
H767        H  0.99133239  0.95355124  0.14559028     0.10900
H768        H  0.49549470  0.50307009  0.23397343     0.12900
C769        C  0.00923945  0.08589205  0.52896744     0.19000
C770        C  0.98229591  0.05829104  0.55424353    -0.19100
C771        C  0.98716565  0.06560747  0.59245997    -0.11400
C772        C  0.01915345  0.10101640  0.60621017     0.21200
C773        C  0.04616907  0.12856990  0.58089753    -0.20700
C774        C  0.04140625  0.12113003  0.54268095    -0.11600
C775        C  0.01949342  0.11562006  0.64587050    -0.15700
C776        C  0.99830029  0.08961737  0.67307466    -0.29600
C777        C  0.99653976  0.08331784  0.48912982    -0.03900
C778        C  0.02318860  0.10376809  0.46209306    -0.40400
H779        H  0.95630309  0.03196169  0.54433350     0.12400
H780        H  0.96423809  0.04487075  0.61083231     0.12000
H781        H  0.57069058  0.15710982  0.58988740     0.11400
H782        H  0.06133211  0.14464315  0.52413354     0.11700
H783        H  0.02917994  0.15329915  0.65163978     0.14400
H784        H  0.99026715  0.05124847  0.66920178     0.13200
H785        H  0.95939348  0.07416972  0.48310729     0.10900
H786        H  0.06099153  0.11130099  0.46645129     0.12900
C787        C  0.61501221  0.52062833  0.53209099     0.19000
C788        C  0.63536461  0.54947270  0.56014067    -0.19100
C789        C  0.62299973  0.54201164  0.59742733    -0.11400
C790        C  0.59008792  0.50512569  0.60731049     0.21200
C791        C  0.57043719  0.47596353  0.57920270    -0.20700
C792        C  0.58267245  0.48347503  0.54210019    -0.11600
C793        C  0.58096955  0.49054837  0.64637442    -0.15700
C794        C  0.59844047  0.51489689  0.67582609    -0.29600
C795        C  0.63345736  0.52460049  0.49358682    -0.03900
C796        C  0.61012290  0.50502171  0.46444598    -0.40400
H797        H  0.66242264  0.07688461  0.55099654     0.12400
H798        H  0.64050535  0.56420581  0.61822159     0.12000
H799        H  0.54631724  0.44632828  0.58606975     0.11400
H800        H  0.56813442  0.45864918  0.52162242     0.11700
H801        H  0.57016276  0.45283599  0.65047894     0.14400
H802        H  0.60708022  0.55336238  0.67373736     0.13200
H803        H  0.66603237  0.03961963  0.48768101     0.10900
H804        H  0.57202036  0.49721132  0.46649604     0.12900
C805        C  0.85545179  0.28849449  0.67168725     0.19000
C806        C  0.82558061  0.29525981  0.64089205    -0.19100
C807        C  0.79400624  0.33464517  0.64029116    -0.11400
C808        C  0.79263656  0.36689459  0.67050109     0.21200
C809        C  0.82675594  0.36339783  0.69889636    -0.20700
C810        C  0.85789884  0.32415930  0.69960515    -0.11600
C811        C  0.75111201  0.39854579  0.67554252    -0.15700
C812        C  0.72741381  0.39757595  0.70811946    -0.29600
C813        C  0.88213024  0.24306557  0.67575002    -0.03900
C814        C  0.88367957  0.22058444  0.70884885    -0.40400
H815        H  0.82431060  0.26838347  0.61879558     0.12400
H816        H  0.76812063  0.33757129  0.61799072     0.12000
H817        H  0.82694520  0.38911160  0.72181992     0.11400
H818        H  0.88233640  0.32044595  0.72280307     0.11700
H819        H  0.73880338  0.41953627  0.65195748     0.14400
H820        H  0.74022236  0.37448109  0.73050869     0.13200
H821        H  0.90048316  0.22887126  0.65145093     0.10900
H822        H  0.86373996  0.23541409  0.73228529     0.12900
C823        C  0.77931319  0.26207195  0.02520628     0.19000
C824        C  0.80355697  0.23316333  0.05123130    -0.19100
C825        C  0.79800747  0.24146572  0.08929985    -0.11400
C826        C  0.76807415  0.27916327  0.10225890     0.21200
C827        C  0.74410185  0.30830679  0.07628184    -0.20700
C828        C  0.74977683  0.30013736  0.03815987    -0.11600
C829        C  0.75461940  0.28348124  0.14203067    -0.15700
C830        C  0.77923406  0.26168883  0.16954505    -0.29600
C831        C  0.77891560  0.24545593  0.98597235    -0.03900
C832        C  0.75567251  0.26873968  0.95847936    -0.40400
H833        H  0.82532780  0.20270730  0.04212063     0.12400
H834        H  0.81539265  0.21666905  0.10833010     0.12000
H835        H  0.71993165  0.33672684  0.08556049     0.11400
H836        H  0.72922855  0.32246527  0.01929955     0.11700
H837        H  0.71805918  0.29523548  0.14764343     0.14400
H838        H  0.81658646  0.25176156  0.16549018     0.13200
H839        H  0.78867293  0.20751049  0.98143971     0.10900
H840        H  0.74728469  0.30725708  0.96059396     0.12900
C841        C  0.86765563  0.34226442  0.10995859     0.19000
C842        C  0.89069091  0.31513844  0.08215585    -0.19100
C843        C  0.88126997  0.32415969  0.04471116    -0.11400
C844        C  0.84867938  0.36091681  0.03429182     0.21200
C845        C  0.82584227  0.38818016  0.06217012    -0.20700
C846        C  0.83497753  0.37888213  0.09961195    -0.11600
C847        C  0.84304522  0.37648073  0.99510126    -0.15700
C848        C  0.85937495  0.35011111  0.96616145    -0.29600
C849        C  0.88468356  0.33782501  0.14866487    -0.03900
C850        C  0.85999119  0.35577847  0.17778520    -0.40800
H851        H  0.91710066  0.28786619  0.08942421     0.12400
H852        H  0.90132066  0.30360042  0.02425231     0.12000
H853        H  0.80161698  0.41748240  0.05493128     0.11400
H854        H  0.81805677  0.40206571  0.12017358     0.11700
H855        H  0.83339010  0.41438305  0.99044996     0.14400
H856        H  0.86693306  0.31159131  0.96947739     0.13200
H857        H  0.92249773  0.32932441  0.15222059     0.10900
H858        H  0.82170277  0.36234581  0.17558338     0.12900
C859        C  0.58200559  0.09685704  0.98204275     0.19000
C860        C  0.53635609  0.10503991  0.96701307    -0.19100
C861        C  0.50345679  0.06718262  0.96522932    -0.11400
C862        C  0.51580931  0.02103359  0.97882084     0.21200
C863        C  0.55863997  0.01482188  0.99857046    -0.20700
C864        C  0.59188985  0.05284419  0.00015425    -0.11600
C865        C  0.44515070  0.51781123  0.94592779    -0.15700
C866        C  0.95767279  0.48704729  0.91764300    -0.29600
C867        C  0.62138870  0.13037269  0.97328137    -0.03900
C868        C  0.62669417  0.14638283  0.93818981    -0.40400
H869        H  0.52760771  0.13954977  0.95411353     0.12400
H870        H  0.96877140  0.07324731  0.95074760     0.12000
H871        H  0.48133629  0.55840935  0.00819824     0.11400
H872        H  0.62675122  0.04644151  0.01244772     0.11700
H873        H  0.42087779  0.50683425  0.96802595     0.14400
H874        H  0.97432216  0.00054201  0.91432740     0.13200
H875        H  0.64863628  0.13712651  0.99417616     0.10900
H876        H  0.60166192  0.13471926  0.91682486     0.12900
C877        C  0.87753989  0.86771141  0.93439311     0.86800
C878        C  0.91246410  0.90477761  0.95117929    -0.53500
C879        C  0.93562358  0.93273088  0.92569264     0.09700
C880        C  0.92235590  0.92070763  0.88537713     0.20700
C881        C  0.84365170  0.89835286  0.91010816    -0.54200
C882        C  0.86713221  0.92717842  0.88486253     0.09800
C883        C  0.90867251  0.83786081  0.90740124    -0.53700
C884        C  0.93318383  0.86546550  0.88204915     0.10400
H885        H  0.91672118  0.90941585  0.98095528     0.14900
H886        H  0.94174738  0.94358136  0.86478871     0.00600
H887        H  0.80513620  0.89996023  0.91456776     0.15200
H888        H  0.91381291  0.79877669  0.91004196     0.15000
C889        C  0.72613905  0.73252878  0.93081801     0.86800
C890        C  0.68513285  0.70009343  0.94508174    -0.53500
C891        C  0.66090508  0.67664820  0.91751114     0.09700
C892        C  0.68060836  0.68630298  0.87853761     0.20700
C893        C  0.75837445  0.69864186  0.90795536    -0.54200
C894        C  0.73449365  0.67361564  0.88101135     0.09800
C895        C  0.70124433  0.76654100  0.90267601    -0.53700
C896        C  0.67609067  0.74209712  0.87567360     0.10400
H897        H  0.67488674  0.69804991  0.97419370     0.14900
H898        H  0.66107886  0.66616376  0.85640269     0.00600
H899        H  0.79607661  0.69278194  0.91405253     0.15200
H900        H  0.69880947  0.80573867  0.90653865     0.15000
C901        C  0.62447634  0.98832833  0.70490462     0.86800
C902        C  0.66217335  0.95470779  0.68748381    -0.53500
C903        C  0.68599223  0.92666675  0.71234129     0.09700
C904        C  0.67102292  0.93534732  0.75274391     0.20700
C905        C  0.59183000  0.95442298  0.72772270    -0.54200
C906        C  0.61622969  0.92593033  0.75249235     0.09800
C907        C  0.65316327  0.01844772  0.73337348    -0.53700
C908        C  0.67881243  0.99067300  0.75794003     0.10400
H909        H  0.67008748  0.95439974  0.65789779     0.14900
H910        H  0.69117601  0.91241879  0.77276637     0.00600
H911        H  0.55348430  0.95119220  0.72306908     0.15200
H912        H  0.65020565  0.55680208  0.73391535     0.15000
C913        C  0.97481119  0.61694877  0.70587953     0.86800
C914        C  0.93807886  0.65248066  0.69002324    -0.53500
C915        C  0.91452718  0.67928625  0.71606738     0.09700
C916        C  0.92954004  0.66823809  0.75605746     0.20700
C917        C  0.00816703  0.64899845  0.72983840    -0.54200
C918        C  0.98448550  0.67711684  0.75560211     0.09800
C919        C  0.94556546  0.58588804  0.73327688    -0.53700
C920        C  0.92073981  0.61260264  0.75917190     0.10400
H921        H  0.93253658  0.65688112  0.66034834     0.14900
H922        H  0.90980516  0.69033671  0.77701935     0.00600
H923        H  0.54608976  0.65182814  0.72479724     0.15200
H924        H  0.94095982  0.54679009  0.73003531     0.15000
O925        O  0.54693724  0.73702865  0.76491320    -0.57500
C926        C  0.59377453  0.88453049  0.77278064     0.75100
O927        O  0.49473017  0.80555045  0.86838012    -0.58700
C928        C  0.50736680  0.71872620  0.77540011     0.75100
C929        C  0.63517268  0.76404816  0.85512959     0.77500
Cd930      Cd  0.55199661  0.80291862  0.81467933     1.37500
O931        O  0.55427399  0.86535965  0.76309251    -0.57500
O932        O  0.61855360  0.74425678  0.82613444    -0.56300
C933        C  0.47356966  0.84472998  0.85944173     0.77400
O934        O  0.61283196  0.80140102  0.86666083    -0.58700
O935        O  0.61404821  0.86541915  0.80045278    -0.57200
O936        O  0.48776481  0.73976354  0.80275874    -0.57100
O937        O  0.48951783  0.86583615  0.83074823    -0.56300
O938        O  0.80432611  0.49124986  0.87309199    -0.57500
C939        C  0.75642926  0.63242856  0.86052819     0.75100
O940        O  0.85594151  0.55527802  0.76785261    -0.58700
C941        C  0.83837347  0.46694439  0.85866963     0.75100
C942        C  0.71372399  0.51167891  0.78167801     0.77500
Cd943      Cd  0.79713325  0.55058611  0.82023870     1.37500
O944        O  0.79115572  0.60801584  0.87361600    -0.57500
O945        O  0.72932351  0.49268084  0.81122333    -0.56300
C946        C  0.87928906  0.59170294  0.77993252     0.77400
O947        O  0.73705358  0.54790157  0.76934611    -0.58700
O948        O  0.74044317  0.61882780  0.82937692    -0.57200
O949        O  0.85294728  0.48123353  0.82725093    -0.57100
O950        O  0.86418133  0.61016267  0.80998289    -0.56300
C951        C  0.88436831  0.88013414  0.20632215     0.86800
C952        C  0.91822609  0.91690690  0.18795634    -0.53500
C953        C  0.94586615  0.94231128  0.21230597     0.09700
C954        C  0.93635363  0.92961914  0.25320221     0.20700
C955        C  0.91697091  0.84798580  0.23033158    -0.54200
C956        C  0.94526253  0.87377961  0.25443099     0.09800
C957        C  0.85470782  0.91105689  0.23352961    -0.53700
C958        C  0.88161381  0.93809577  0.25771671     0.10400
H959        H  0.91913127  0.92275679  0.15811765     0.14900
H960        H  0.95875558  0.95099081  0.27287497     0.00600
H961        H  0.91994483  0.80881370  0.22657597     0.15200
H962        H  0.81596589  0.91445568  0.23167302     0.15000
C963        C  0.75021126  0.73038312  0.20545911     0.86800
C964        C  0.71458153  0.69270039  0.19044076    -0.53500
C965        C  0.68790262  0.67068763  0.21718983     0.09700
C966        C  0.70082449  0.68617450  0.25677776     0.20700
C967        C  0.71955299  0.76520390  0.22932215    -0.54200
C968        C  0.69256099  0.74189243  0.25570652     0.09800
C969        C  0.78129375  0.70141939  0.23262419    -0.53700
C970        C  0.75556295  0.67706117  0.25910028     0.10400
H971        H  0.70995444  0.68556597  0.16095901     0.14900
H972        H  0.67944855  0.66701465  0.27839449     0.00600
H973        H  0.71611309  0.80386643  0.22349405     0.15200
H974        H  0.81976657  0.69701380  0.22914860     0.15000
C975        C  0.00311729  0.62957385  0.43045882     0.86800
C976        C  0.97009096  0.66851129  0.44699949    -0.53500
C977        C  0.94421829  0.69353223  0.42137681     0.09700
C978        C  0.95372233  0.67760367  0.38123259     0.20700
C979        C  0.97005677  0.59705776  0.40688771    -0.54200
C980        C  0.94317119  0.62221541  0.38160318     0.09800
C981        C  0.03441723  0.65816017  0.40262654    -0.53700
C982        C  0.00849598  0.68443798  0.37720266     0.10400
H983        H  0.96931669  0.67653774  0.47655073     0.14900
H984        H  0.93234918  0.69833118  0.36057958     0.00600
H985        H  0.96560776  0.55827821  0.41182355     0.15200
H986        H  0.57171785  0.66122130  0.40545681     0.15000
C987        C  0.63401798  0.98714012  0.43009226     0.86800
C988        C  0.67005904  0.95057356  0.44571225    -0.53500
C989        C  0.69700494  0.92762570  0.41941816     0.09700
C990        C  0.68457942  0.94220013  0.37957992     0.20700
C991        C  0.66460209  0.02178330  0.40602989    -0.54200
C992        C  0.69203109  0.99808019  0.37988862     0.09800
C993        C  0.60375155  0.95681512  0.40295077    -0.53700
C994        C  0.63012188  0.93204987  0.37700244     0.10400
H995        H  0.67470917  0.94539257  0.47533729     0.14900
H996        H  0.70635231  0.92268783  0.35833514     0.00600
H997        H  0.67102792  0.55502663  0.41435472     0.15200
H998        H  0.56534594  0.95161896  0.40627393     0.15000
O999        O  0.88138987  0.56120391  0.37356106    -0.57500
C1000       C  0.73637286  0.51547271  0.36341691     0.75100
O1001       O  0.81421402  0.61427815  0.27040093    -0.58700
C1002       C  0.90116228  0.60016238  0.36235149     0.75100
C1003       C  0.85883834  0.47295930  0.28457247     0.77500
Cd1004     Cd  0.81847093  0.55696338  0.32390655     1.37500
O1005       O  0.75742628  0.55328641  0.37563307    -0.57500
O1006       O  0.87692446  0.48913133  0.31430709    -0.56300
C1007       C  0.77697690  0.63691380  0.28117788     0.77400
O1008       O  0.82278853  0.49600778  0.27229831    -0.58700
O1009       O  0.75398064  0.49668029  0.33438989    -0.57200
O1010       O  0.88199890  0.62010878  0.33447254    -0.57100
O1011       O  0.75829847  0.62227916  0.31118787    -0.56300
O1012       O  0.62976954  0.80259745  0.26185083    -0.57500
C1013       C  0.48750201  0.85320605  0.27347888     0.75100
O1014       O  0.56792024  0.74599133  0.36467144    -0.58700
C1015       C  0.65072782  0.76506976  0.27448457     0.75100
C1016       C  0.60977302  0.89035569  0.35574799     0.77500
Cd1017     Cd  0.56887554  0.80877729  0.31376046     1.37500
O1018       O  0.50636689  0.81326758  0.26314542    -0.57500
O1019       O  0.62860962  0.87517727  0.32591046    -0.56300
C1020       C  0.52867571  0.72596094  0.35561294     0.77400
O1021       O  0.57323759  0.86703038  0.36702435    -0.58700
O1022       O  0.50680341  0.87338586  0.30127064    -0.57200
O1023       O  0.63283403  0.74705860  0.30361991    -0.57100
O1024       O  0.50733230  0.74467087  0.32815407    -0.56300
C1025       C  0.78962585  0.85081450  0.46992327     0.19000
C1026       C  0.83348870  0.86228974  0.45288242    -0.19100
C1027       C  0.87091543  0.82908877  0.45401185    -0.11400
C1028       C  0.86447222  0.78431253  0.47207116     0.21200
C1029       C  0.82291175  0.77561980  0.49292566    -0.20700
C1030       C  0.78538238  0.80899759  0.49186328    -0.11600
C1031       C  0.89766881  0.74415259  0.46528279    -0.15700
C1032       C  0.91297604  0.73483484  0.43056339    -0.29600
C1033       C  0.74701492  0.87996198  0.46253655    -0.03900
C1034       C  0.73788446  0.89603236  0.42805567    -0.40400
H1035       H  0.83786677  0.89562177  0.43713517     0.12400
H1036       H  0.90369300  0.83694888  0.43891511     0.12000
H1037       H  0.81800109  0.74141313  0.50744057     0.11400
H1038       H  0.75189877  0.80044206  0.50575802     0.11700
H1039       H  0.90479490  0.71928944  0.48798901     0.14400
H1040       H  0.90115672  0.75757295  0.40764474     0.13200
H1041       H  0.72168582  0.88484111  0.48512416     0.10900
H1042       H  0.76177469  0.88648915  0.40525253     0.12900
C1043       C  0.49490952  0.56162120  0.17644853     0.19000
C1044       C  0.50201355  0.59437608  0.20585554    -0.19100
C1045       C  0.54069352  0.62600141  0.20490823    -0.11400
C1046       C  0.57253935  0.62467960  0.17469524     0.21200
C1047       C  0.56184675  0.59668054  0.14322076    -0.20700
C1048       C  0.52276674  0.56499476  0.14410314    -0.11600
C1049       C  0.61938876  0.64784851  0.17803581    -0.15700
C1050       C  0.64501700  0.64179382  0.20928398    -0.29600
C1051       C  0.96641712  0.51640207  0.18144814    -0.03900
C1052       C  0.98078788  0.97946032  0.20073897    -0.40400
H1053       H  0.98083785  0.59034806  0.23017026     0.12400
H1054       H  0.54776720  0.64893938  0.22885248     0.12000
H1055       H  0.58589105  0.59619538  0.11951119     0.11400
H1056       H  0.56695994  0.98988590  0.12180166     0.11700
H1057       H  0.63208157  0.66996628  0.15507356     0.14400
H1058       H  0.63116015  0.61911271  0.23160776     0.13200
H1059       H  0.94302595  0.50542576  0.15891788     0.10900
H1060       H  0.48793532  0.00984664  0.22450677     0.12900
C1061       C  0.01634986  0.58344116  0.52890324     0.19000
C1062       C  0.99056177  0.55367169  0.55363895    -0.19100
C1063       C  0.99332760  0.56106696  0.59216354    -0.11400
C1064       C  0.02210278  0.59867506  0.60680985     0.21200
C1065       C  0.04877611  0.62755029  0.58205382    -0.20700
C1066       C  0.04612478  0.62006188  0.54363999    -0.11600
C1067       C  0.01984788  0.61416583  0.64649989    -0.15700
C1068       C  0.99788734  0.58917472  0.67399868    -0.29600
C1069       C  0.00404989  0.58184821  0.48869381    -0.03900
C1070       C  0.02954099  0.60459454  0.46184690    -0.40400
H1071       H  0.96672646  0.52575167  0.54302697     0.12400
H1072       H  0.97132706  0.53859850  0.61003063     0.12000
H1073       H  0.56855096  0.65796819  0.59279403     0.11400
H1074       H  0.06536953  0.64488700  0.52567084     0.11700
H1075       H  0.02976148  0.65181098  0.65209678     0.14400
H1076       H  0.98899966  0.55094402  0.67044962     0.13200
H1077       H  0.96762274  0.57047881  0.48229852     0.10900
H1078       H  0.06675684  0.61445003  0.46656280     0.12900
C1079       C  0.61105254  0.02462844  0.53006080     0.19000
C1080       C  0.63458933  0.05094076  0.55810342    -0.19100
C1081       C  0.62360718  0.04314101  0.59559969    -0.11400
C1082       C  0.58879103  0.00845020  0.60596217     0.21200
C1083       C  0.56562183  0.98180018  0.57792574    -0.20700
C1084       C  0.57644363  0.98974520  0.54044723    -0.11600
C1085       C  0.58165838  0.99324847  0.64523428    -0.15700
C1086       C  0.60064024  0.01731607  0.67444216    -0.29600
C1087       C  0.62872686  0.02891122  0.49115585    -0.03900
C1088       C  0.60566377  0.00957820  0.46169918    -0.40400
H1089       H  0.66153196  0.57723689  0.55322936     0.12400
H1090       H  0.64390823  0.06304543  0.61621791     0.12000
H1091       H  0.53980608  0.95380939  0.58510108     0.11400
H1092       H  0.55889553  0.96705608  0.51997416     0.11700
H1093       H  0.57091595  0.95550601  0.64928759     0.14400
H1094       H  0.60922780  0.05579222  0.67229368     0.13200
H1095       H  0.67098099  0.53463750  0.49035526     0.10900
H1096       H  0.56777606  0.00083634  0.46370748     0.12900
C1097       C  0.82649575  0.75861583  0.66387153     0.19000
C1098       C  0.77955998  0.74989127  0.65191780    -0.19100
C1099       C  0.74722587  0.78845925  0.64994243    -0.11400
C1100       C  0.76212481  0.83543589  0.65985288     0.21200
C1101       C  0.81037321  0.84479878  0.66792147    -0.20700
C1102       C  0.84258622  0.80641879  0.66981081    -0.11600
C1103       C  0.72609344  0.87250228  0.66757768    -0.15700
C1104       C  0.72389686  0.89243424  0.70164769    -0.29600
C1105       C  0.85708270  0.71764556  0.67372503    -0.03900
C1106       C  0.88025477  0.71755237  0.70638630    -0.40400
H1107       H  0.76709955  0.71304261  0.64693953     0.12400
H1108       H  0.70991977  0.78109754  0.64368243     0.12000
H1109       H  0.82225135  0.88123948  0.67507240     0.11400
H1110       H  0.87928550  0.81359486  0.67804745     0.11700
H1111       H  0.69820367  0.87869255  0.64713185     0.14400
H1112       H  0.74917094  0.88131164  0.72297397     0.13200
H1113       H  0.85822348  0.68645793  0.65511477     0.10900
H1114       H  0.87439866  0.74666725  0.72643587     0.12900
C1115       C  0.77218642  0.74836637  0.02931906     0.19000
C1116       C  0.79976833  0.72226025  0.05506734    -0.19100
C1117       C  0.79582838  0.73210756  0.09311879    -0.11400
C1118       C  0.76400794  0.76828730  0.10607132     0.21200
C1119       C  0.73693030  0.79457385  0.08023543    -0.20700
C1120       C  0.74101802  0.78493122  0.04232389    -0.11600
C1121       C  0.75166045  0.77375820  0.14590857    -0.15700
C1122       C  0.77695016  0.75307675  0.17345373    -0.29600
C1123       C  0.76990895  0.73107454  0.99038387    -0.03900
C1124       C  0.75076674  0.75770486  0.96272420    -0.40400
H1125       H  0.82306893  0.69307707  0.04582792     0.12400
H1126       H  0.81604155  0.70966971  0.11216457     0.12000
H1127       H  0.71128491  0.82162671  0.08952209     0.11400
H1128       H  0.71763937  0.80452360  0.02364384     0.11700
H1129       H  0.71518762  0.78554445  0.15188995     0.14400
H1130       H  0.81425352  0.74312935  0.16927117     0.13200
H1131       H  0.77627010  0.69241762  0.98576028     0.10900
H1132       H  0.74641175  0.79683353  0.96569811     0.12900
C1133       C  0.86044136  0.83446602  0.10952807     0.19000
C1134       C  0.88392248  0.80654646  0.08231484    -0.19100
C1135       C  0.87372934  0.81306975  0.04460740    -0.11400
C1136       C  0.83975940  0.84799934  0.03324914     0.21200
C1137       C  0.81643749  0.87597388  0.06051264    -0.20700
C1138       C  0.82649870  0.86934596  0.09816889    -0.11600
C1139       C  0.83345029  0.86209920  0.99369910    -0.15700
C1140       C  0.85455353  0.83843610  0.96518586    -0.29600
C1141       C  0.87803518  0.83235243  0.14838133    -0.03900
C1142       C  0.85532000  0.85427980  0.17695221    -0.40800
H1143       H  0.91120357  0.78049452  0.09021098     0.12400
H1144       H  0.89403903  0.79193137  0.02465792     0.12000
H1145       H  0.79123371  0.90409190  0.05258105     0.11400
H1146       H  0.80905600  0.89321631  0.11796687     0.11700
H1147       H  0.82111081  0.89915318  0.98890159     0.14400
H1148       H  0.86478765  0.80047770  0.96792925     0.13200
H1149       H  0.91540769  0.82207700  0.15195211     0.10900
H1150       H  0.81730728  0.86247162  0.17516659     0.12900
C1151       C  0.53702006  0.63903239  0.95127908     0.19000
C1152       C  0.51120927  0.63049303  0.91844762    -0.19100
C1153       C  0.47724826  0.59352869  0.91732085    -0.11400
C1154       C  0.46875218  0.56532390  0.94911314     0.21200
C1155       C  0.48863027  0.57926849  0.98327298    -0.20700
C1156       C  0.52299229  0.61625077  0.98435751    -0.11600
C1157       C  0.48610035  0.97857343  0.96983923    -0.15700
C1158       C  0.96706174  0.97367993  0.93576282    -0.29600
C1159       C  0.58345205  0.66399101  0.94956938    -0.03900
C1160       C  0.61479800  0.65187386  0.92263010    -0.40400
H1161       H  0.52045668  0.64931343  0.89295612     0.12400
H1162       H  0.96256619  0.58333811  0.88954026     0.12000
H1163       H  0.56797202  0.97959556  0.01001536     0.11400
H1164       H  0.54203439  0.62334404  0.01002890     0.11700
H1165       H  0.48230848  0.95050919  0.99081339     0.14400
H1166       H  0.98246102  0.49790386  0.89582639     0.13200
H1167       H  0.59273121  0.68977530  0.97132592     0.10900
H1168       H  0.60472716  0.62546659  0.90147213     0.12900
loop_ 
_geom_bond_atom_site_label_1 
_geom_bond_atom_site_label_2 
_geom_bond_distance 
_geom_bond_site_symmetry_2 
_ccdc_geom_bond_type 
C1            C2   1.535       .  S
C1            C7   1.530       .  S
C1            C5   1.539       .  S
C1          C264   1.506       .  S
C2            H9   1.086       .  S
C2            C3   1.359       .  D
C3            C4   1.529       .  S
C3          C282   1.468       .  S
C4            C8   1.549       .  S
C4            C6   1.545       .  S
C4           H10   1.111       .  S
C5           H11   1.086       .  S
C5            C6   1.371       .  D
C6          C357   1.484       .  S
C7           H12   1.086       .  S
C7            C8   1.364       .  D
C8          C641   1.487       .  S
C13          C14   1.533       .  S
C13          C19   1.535       .  S
C13          C17   1.535       .  S
C13         C248   1.506       .  S
C14          H21   1.086       .  S
C14          C15   1.359       .  D
C15          C16   1.533       .  S
C15         C284   1.468       .  S
C16          C20   1.548       .  S
C16          C18   1.553       .  S
C16          H22   1.111       .  S
C17          H23   1.086       .  S
C17          C18   1.365       .  D
C18          C63   1.491       .  S
C19          H24   1.086       .  S
C19          C20   1.369       .  D
C20          C53   1.489       .  S
C25          C26   1.532       .  S
C25          C31   1.537       .  S
C25          C29   1.537       .  S
C25         C210   1.507       .  S
C26          H33   1.084       .  S
C26          C27   1.357       .  D
C27          C28   1.527       .  S
C27         C228   1.462       .  S
C28          C32   1.540       .  S
C28          C30   1.545       .  S
C28          H34   1.111       .  S
C29          H35   1.086       .  S
C29          C30   1.368       .  D
C30          C50   1.487       .  S
C31         H328   1.086       .  S
C31          C32   1.369       .  D
C32         C358   1.480       .  S
H36         C323   1.086       .  S
C37          C38   1.532       .  S
C37          C43   1.538       .  S
C37          C41   1.539       .  S
C37         C192   1.508       .  S
C38          H45   1.085       .  S
C38          C39   1.360       .  D
C39          C40   1.527       .  S
C39         C230   1.464       .  S
C40          C44   1.545       .  S
C40          C42   1.545       .  S
C40          H46   1.111       .  S
C41         H631   1.086       .  S
C41          C42   1.367       .  D
C42         C636   1.487       .  S
C43          H48   1.086       .  S
C43          C44   1.370       .  D
C44          C70   1.489       .  S
H47         C625   1.086       .  S
O49          C52   1.270       .  A
O49         Cd54   2.517       .  S
C50          O59   1.263       .  A
C50          O55   1.269       .  A
O51          C57   1.268       .  A
O51         Cd54   2.497   1_655  S
C52         C626   1.488   1_455  S
C52          O60   1.263   1_455  A
C53          O58   1.267       .  A
C53          O56   1.263       .  A
Cd54         O61   2.507   1_455  S
Cd54         O60   2.485   1_455  S
Cd54         O59   2.486       .  S
Cd54         O55   2.516       .  S
Cd54         O58   2.497       .  S
Cd54         O56   2.519       .  S
C57         C592   1.486       .  S
C57          O61   1.262       .  A
O62          C65   1.269       .  A
O62         Cd67   2.539   1_565  S
C63          O72   1.261       .  A
C63          O68   1.269       .  A
O64          C70   1.268       .  A
O64         Cd67   2.517       .  S
C65         C298   1.492       .  S
C65          O73   1.261       .  A
C66         C324   1.489   1_545  S
C66          O71   1.268       .  A
C66          O69   1.264   1_545  A
Cd67         O74   2.500       .  S
Cd67         O73   2.493   1_545  S
Cd67         O72   2.501       .  S
Cd67         O68   2.530       .  S
Cd67         O71   2.510       .  S
Cd67         O69   2.498   1_545  S
C70          O74   1.264       .  A
C75          C76   1.533       .  S
C75          C81   1.538       .  S
C75          C79   1.531       .  S
C75         C266   1.503       .  S
C76          H83   1.085       .  S
C76          C77   1.360       .  D
C77          C78   1.527       .  S
C77         C176   1.465       .  S
C78          C82   1.543       .  S
C78          C80   1.549       .  S
C78          H84   1.111       .  S
C79          H85   1.086       .  S
C79          C80   1.365       .  D
C80         C721   1.486       .  S
C81          H86   1.086       .  S
C81          C82   1.369       .  D
C82         C419   1.484       .  S
C87          C88   1.529       .  S
C87          C93   1.537       .  S
C87          C91   1.542       .  S
C87         C246   1.509       .  S
C88          H95   1.085       .  S
C88          C89   1.357       .  D
C89          C90   1.529       .  S
C89         C174   1.462       .  S
C90          C94   1.544       .  S
C90          C92   1.544       .  S
C90          H96   1.111       .  S
C91          H97   1.086       .  S
C91          C92   1.370       .  D
C92         C139   1.489       .  S
C93          H98   1.086       .  S
C93          C94   1.369       .  D
C94         C131   1.482       .  S
C99         C100   1.533       .  S
C99         C105   1.540       .  S
C99         C103   1.533       .  S
C99         C194   1.506       .  S
C100        H107   1.086       .  S
C100        C101   1.358       .  D
C101        C102   1.527       .  S
C101        C156   1.464       .  S
C102        C106   1.545       .  S
C102        C104   1.548       .  S
C102        H108   1.111       .  S
C103        H109   1.086       .  S
C103        C104   1.364       .  D
C104        C126   1.486       .  S
C105        H694   1.086       .  S
C105        C106   1.372       .  D
C106        C728   1.489       .  S
H110        C689   1.086       .  S
C111        C112   1.534       .  S
C111        C117   1.532       .  S
C111        C115   1.539       .  S
C111        C212   1.505       .  S
C112        H119   1.085       .  S
C112        C113   1.360       .  D
C113        C114   1.528       .  S
C113        C158   1.465       .  S
C114        C118   1.546       .  S
C114        C116   1.545       .  S
C114        H120   1.111       .  S
C115        H413   1.086       .  S
C115        C116   1.370       .  D
C116        C416   1.486       .  S
C117        H122   1.086       .  S
C117        C118   1.364       .  D
C118        C140   1.483       .  S
H121        C407   1.086       .  S
O123        C126   1.269       .  A
O123       Cd128   2.499       .  S
C124        C408   1.490   1_545  S
C124        O133   1.263       .  A
C124        O129   1.269       .  A
O125        C131   1.268       .  A
O125       Cd128   2.501       .  S
C126        O134   1.263       .  A
C127        C374   1.490       .  S
C127        O132   1.268       .  A
C127        O130   1.263       .  A
Cd128       O135   2.488       .  S
Cd128       O134   2.498       .  S
Cd128       O133   2.481       .  S
Cd128       O129   2.537       .  S
Cd128       O132   2.501   1_545  S
Cd128       O130   2.517   1_545  S
C131        O135   1.262       .  A
O136        C139   1.268       .  A
O136       Cd141   2.520       .  S
C137        C664   1.486       .  S
C137        O146   1.262   1_655  A
C137        O142   1.269   1_655  A
O138        C144   1.267       .  A
O138       Cd141   2.513       .  S
C139        O147   1.263       .  A
C140        O145   1.268       .  A
C140        O143   1.262       .  A
Cd141       O148   2.482       .  S
Cd141       O147   2.488       .  S
Cd141       O146   2.491       .  S
Cd141       O142   2.505       .  S
Cd141       O145   2.495       .  S
Cd141       O143   2.491       .  S
C144        C690   1.486       .  S
C144        O148   1.263       .  A
C149        C157   1.459       .  S
C149        C150   1.402       .  A
C149        C154   1.400       .  A
C150        C151   1.385       .  A
C150        H159   1.084       .  S
C151        C152   1.401       .  A
C151        H160   1.084       .  S
C152        C155   1.459       .  S
C152        C153   1.400       .  A
C153        C154   1.394       .  A
C153        H161   1.083       .  S
C154        H162   1.083       .  S
C155        H163   1.084       .  S
C155        C156   1.343       .  D
C156        H164   1.087       .  S
C157        H165   1.084       .  S
C157        C158   1.344       .  D
C158        H166   1.087       .  S
C167        C759   1.460   1_445  S
C167        C168   1.400       .  A
C167        C172   1.401       .  A
C168        C169   1.385       .  A
C168        H761   1.084   1_455  S
C169        C170   1.402       .  A
C169        H178   1.084       .  S
C170        C173   1.458       .  S
C170        C171   1.399       .  A
C171        C172   1.395       .  A
C171        H179   1.083       .  S
C172        H472   1.083   1_545  S
C173        H181   1.085       .  S
C173        C174   1.342       .  D
C174        H182   1.087       .  S
C175        H183   1.084       .  S
C175        C468   1.346       .  D
C175        C751   1.464   1_565  S
C176        H768   1.087       .  S
C176        C467   1.343       .  D
H177        C752   1.083       .  S
H180        C464   1.083       .  S
H184        C760   1.087       .  S
C185        C193   1.480       .  S
C185        C186   1.402       .  A
C185        C190   1.407       .  A
C186        C187   1.396       .  A
C186        H195   1.083       .  S
C187        C188   1.407       .  A
C187        H196   1.081       .  S
C188        C191   1.481       .  S
C188        C189   1.402       .  A
C189        C190   1.397       .  A
C189        H781   1.083       .  S
C190        H198   1.081       .  S
C191        H199   1.088       .  S
C191        C192   1.348       .  D
C192        H200   1.085       .  S
C193        H201   1.088       .  S
C193        C194   1.347       .  D
C194        H202   1.085       .  S
H197        C773   1.083       .  S
C203        C211   1.480       .  S
C203        C204   1.401       .  A
C203        C208   1.408       .  A
C204        C205   1.399       .  A
C204        H505   1.083       .  S
C205        C206   1.410       .  A
C205        H214   1.081       .  S
C206        C209   1.482       .  S
C206        C207   1.400       .  A
C207        C208   1.393       .  A
C207        H215   1.083       .  S
C208        H216   1.081       .  S
C209        H217   1.088       .  S
C209        C210   1.344       .  D
C210        H218   1.085       .  S
C211        H511   1.088       .  S
C211        C212   1.345       .  D
C212        H220   1.086       .  S
H213        C496   1.083       .  S
H219        C503   1.088       .  S
C221        C229   1.458       .  S
C221        C222   1.400       .  A
C221        C226   1.403       .  A
C222        C223   1.393       .  A
C222        H231   1.083       .  S
C223        C224   1.399       .  A
C223        H232   1.083       .  S
C224        C227   1.455       .  S
C224        C225   1.400       .  A
C225        C226   1.383       .  A
C225        H233   1.084       .  S
C226        H234   1.083       .  S
C227        H235   1.083       .  S
C227        C228   1.343       .  D
C228        H236   1.087       .  S
C229        H237   1.083       .  S
C229        C230   1.342       .  D
C230        H238   1.087       .  S
C239        C247   1.482   1_554  S
C239        C240   1.404       .  A
C239        C244   1.408       .  A
C240        C241   1.396       .  A
C240        H249   1.083       .  S
C241        C242   1.407       .  A
C241        H250   1.082       .  S
C242        C245   1.482       .  S
C242        C243   1.402       .  A
C243        C244   1.397       .  A
C243        H251   1.082       .  S
C244        H252   1.081       .  S
C245        H253   1.088       .  S
C245        C246   1.347       .  D
C246        H254   1.086       .  S
C247        H255   1.088       .  S
C247        C248   1.346       .  D
C248        H256   1.085       .  S
C257        C265   1.477       .  S
C257        C258   1.400       .  A
C257        C262   1.408       .  A
C258        C259   1.396       .  A
C258        H267   1.083       .  S
C259        C260   1.410       .  A
C259        H268   1.081       .  S
C260        C263   1.481   1_554  S
C260        C261   1.400       .  A
C261        C262   1.394       .  A
C261        H269   1.083       .  S
C262        H270   1.082       .  S
C263        H271   1.088       .  S
C263        C264   1.344       .  D
C264        H272   1.085       .  S
C265        H273   1.088       .  S
C265        C266   1.345       .  D
C266        H274   1.086       .  S
C275        C283   1.465       .  S
C275        C276   1.402       .  A
C275        C280   1.401   1_556  A
C276        C277   1.387       .  A
C276        H285   1.084       .  S
C277        C278   1.402       .  A
C277        H870   1.083   1_455  S
C278        C573   1.466   1_445  S
C278        C279   1.402       .  A
C279        C280   1.396   1_556  A
C279        H579   1.083   1_546  S
C280        H288   1.083       .  S
C281        H289   1.086       .  S
C281        C866   1.346       .  D
C281        C570   1.463       .  S
C282        H582   1.086       .  S
C282        C865   1.347       .  D
C283        H291   1.085       .  S
C283        C284   1.345       .  D
C284        H292   1.087       .  S
H286        C861   1.083       .  S
H287        C571   1.083   1_554  S
H290        C574   1.087       .  S
C293        C294   1.532       .  S
C293        C299   1.535       .  S
C293        C297   1.539       .  S
C293        C556   1.511       .  S
C294        H301   1.085       .  S
C294        C295   1.359       .  D
C295        C296   1.533       .  S
C295        C574   1.471       .  S
C296        C300   1.550       .  S
C296        C298   1.551       .  S
C296        H302   1.111       .  S
C297        H303   1.086       .  S
C297        C298   1.370       .  D
C299        H304   1.086       .  S
C299        C300   1.368       .  D
C300        C933   1.492       .  S
C305        C306   1.535       .  S
C305        C311   1.544       .  S
C305        C309   1.531       .  S
C305        C540   1.505       .  S
C306        H313   1.086       .  S
C306        C307   1.360       .  D
C307        C308   1.527       .  S
C307        C576   1.462       .  S
C308        C312   1.540       .  S
C308        C310   1.545       .  S
C308        H314   1.112       .  S
C309        H315   1.086       .  S
C309        C310   1.362       .  D
C310        C355   1.479       .  S
C311        H316   1.086       .  S
C311        C312   1.373       .  D
C312        C345   1.488       .  S
C317        C318   1.531       .  S
C317        C323   1.540   1_565  S
C317        C321   1.538       .  S
C317        C502   1.511   1_565  S
C318        H325   1.086       .  S
C318        C319   1.356       .  D
C319        C320   1.530       .  S
C319        C520   1.466       .  S
C320        C324   1.545       .  S
C320        C322   1.549       .  S
C320        H326   1.111       .  S
C321        H327   1.086       .  S
C321        C322   1.369       .  D
C322        C342   1.488       .  S
C323        C324   1.371   1_545  D
C329        C330   1.527       .  S
C329        C335   1.537       .  S
C329        C333   1.542       .  S
C329        C484   1.516       .  S
C330        H337   1.086       .  S
C330        C331   1.357       .  D
C331        C332   1.530       .  S
C331        C522   1.463       .  S
C332        C336   1.549       .  S
C332        C334   1.551       .  S
C332        H338   1.111       .  S
C333        H923   1.086       .  S
C333        C334   1.371       .  D
C334        C928   1.499       .  S
C335        H340   1.086       .  S
C335        C336   1.371       .  D
C336        C362   1.488       .  S
H339        C917   1.086       .  S
O341        C344   1.269       .  A
O341       Cd346   2.547       .  S
C342        O351   1.261       .  A
C342        O347   1.269       .  A
O343        C349   1.269       .  A
O343       Cd346   2.503   1_655  S
C344        C918   1.499   1_455  S
C344        O352   1.263   1_455  A
C345        O350   1.268       .  A
C345        O348   1.263       .  A
Cd346       O353   2.517   1_455  S
Cd346       O352   2.527   1_455  S
Cd346       O351   2.493       .  S
Cd346       O347   2.525       .  S
Cd346       O350   2.521       .  S
Cd346       O348   2.492       .  S
C349        C884   1.492       .  S
C349        O353   1.264       .  A
O354        C357   1.270       .  A
O354       Cd359   2.513       .  S
C355        O364   1.262       .  A
C355        O360   1.270       .  A
O356        C362   1.268       .  A
O356       Cd359   2.496       .  S
C357        O365   1.263       .  A
C358        O363   1.268       .  A
C358        O361   1.263       .  A
Cd359       O366   2.507       .  S
Cd359       O365   2.474       .  S
Cd359       O364   2.474       .  S
Cd359       O360   2.484       .  S
Cd359       O363   2.490       .  S
Cd359       O361   2.477       .  S
C362        O366   1.264       .  A
C367        C368   1.531       .  S
C367        C373   1.535       .  S
C367        C371   1.535       .  S
C367        C558   1.508       .  S
C368        H375   1.085       .  S
C368        C369   1.360       .  D
C369        C370   1.535       .  S
C369        C468   1.471       .  S
C370        C374   1.550       .  S
C370        C372   1.554       .  S
C370        H376   1.111       .  S
C371        H377   1.086       .  S
C371        C372   1.368       .  D
C372       C1013   1.495       .  S
C373        H378   1.086       .  S
C373        C374   1.368       .  D
C379        C380   1.531       .  S
C379        C385   1.531       .  S
C379        C383   1.542       .  S
C379        C538   1.507       .  S
C380        H387   1.086       .  S
C380        C381   1.357       .  D
C381        C382   1.528       .  S
C381        C466   1.461       .  S
C382        C386   1.547       .  S
C382        C384   1.546       .  S
C382        H388   1.111       .  S
C383        H389   1.086       .  S
C383        C384   1.370       .  D
C384        C431   1.489       .  S
C385        H390   1.086       .  S
C385        C386   1.367       .  D
C386        C423   1.483       .  S
C391        C392   1.528       .  S
C391        C397   1.541       .  S
C391        C395   1.536       .  S
C391        C486   1.514       .  S
C392        H399   1.085       .  S
C392        C393   1.358       .  D
C393        C394   1.530       .  S
C393        C448   1.465       .  S
C394        C398   1.546       .  S
C394        C396   1.548       .  S
C394        H400   1.111       .  S
C395        H401   1.086       .  S
C395        C396   1.368       .  D
C396        C418   1.489       .  S
C397        H986   1.086       .  S
C397        C398   1.374       .  D
C398       C1020   1.491       .  S
H402        C981   1.086       .  S
C403        C404   1.529       .  S
C403        C409   1.535       .  S
C403        C407   1.542   1_565  S
C403        C504   1.512   1_565  S
C404        H411   1.084       .  S
C404        C405   1.359       .  D
C405        C406   1.527       .  S
C405        C450   1.464       .  S
C406        C410   1.545       .  S
C406        C408   1.546       .  S
C406        H412   1.111       .  S
C407        C408   1.372   1_545  D
C409        H414   1.086       .  S
C409        C410   1.367       .  D
C410        C432   1.485       .  S
O415        C418   1.268       .  A
O415       Cd420   2.503       .  S
C416        O425   1.262       .  A
C416        O421   1.270       .  A
O417        C423   1.269       .  A
O417       Cd420   2.480       .  S
C418        O426   1.263       .  A
C419        O424   1.268       .  A
C419        O422   1.263       .  A
Cd420       O427   2.492       .  S
Cd420       O426   2.511       .  S
Cd420       O425   2.477       .  S
Cd420       O421   2.519       .  S
Cd420       O424   2.497       .  S
Cd420       O422   2.489       .  S
C423        O427   1.264       .  A
O428        C431   1.270       .  A
O428       Cd433   2.531       .  S
C429        C956   1.491       .  S
C429        O438   1.262   1_655  A
C429        O434   1.270   1_655  A
O430        C436   1.267       .  A
O430       Cd433   2.514       .  S
C431        O439   1.261       .  A
C432        O437   1.269       .  A
C432        O435   1.263       .  A
Cd433       O440   2.507       .  S
Cd433       O439   2.486       .  S
Cd433       O438   2.502       .  S
Cd433       O434   2.522       .  S
Cd433       O437   2.493       .  S
Cd433       O435   2.499       .  S
C436        C982   1.491       .  S
C436        O440   1.264       .  A
C441        C449   1.457       .  S
C441        C442   1.402       .  A
C441        C446   1.399       .  A
C442        C443   1.385       .  A
C442        H451   1.083       .  S
C443        C444   1.401       .  A
C443        H452   1.084       .  S
C444        C447   1.458       .  S
C444        C445   1.399       .  A
C445        C446   1.392       .  A
C445        H453   1.083       .  S
C446        H454   1.084       .  S
C447        H455   1.084       .  S
C447        C448   1.343       .  D
C448        H456   1.087       .  S
C449        H457   1.084       .  S
C449        C450   1.342       .  D
C450        H458   1.087       .  S
C459       C1051   1.457       .  S
C459        C460   1.400   1_655  A
C459        C464   1.401   1_655  A
C460        C461   1.383       .  A
C460       H1053   1.084   1_455  S
C461        C462   1.401       .  A
C461        H470   1.084       .  S
C462        C465   1.456       .  S
C462        C463   1.399       .  A
C463        C464   1.394       .  A
C463        H471   1.083       .  S
C465        H473   1.084       .  S
C465        C466   1.343       .  D
C466        H474   1.087       .  S
C467        H475   1.084       .  S
C467       C1043   1.457       .  S
C468       H1060   1.087   1_565  S
H469       C1044   1.084       .  S
H476       C1052   1.087   1_545  S
C477        C485   1.487       .  S
C477        C478   1.405       .  A
C477        C482   1.406       .  A
C478        C479   1.402       .  A
C478        H487   1.083       .  S
C479        C480   1.408       .  A
C479        H488   1.081       .  S
C480        C483   1.489       .  S
C480        C481   1.404       .  A
C481        C482   1.398       .  A
C481       H1073   1.083       .  S
C482        H490   1.081       .  S
C483        H491   1.088       .  S
C483        C484   1.351       .  D
C484        H492   1.085       .  S
C485        H493   1.087       .  S
C485        C486   1.352       .  D
C486        H494   1.086       .  S
H489       C1065   1.083       .  S
C495        C503   1.486       .  S
C495        C496   1.402       .  A
C495        C500   1.409   1_545  A
C496        C497   1.398       .  A
C497        C498   1.409       .  A
C497        H506   1.081       .  S
C498        C501   1.487   1_545  S
C498        C499   1.404   1_545  A
C499        C500   1.399       .  A
C499        H507   1.083       .  S
C500        H508   1.081       .  S
C501        H509   1.088       .  S
C501        C502   1.349   1_565  D
C502        H510   1.085       .  S
C503        C504   1.348       .  D
C504        H512   1.085       .  S
C513        C521   1.457       .  S
C513        C514   1.399       .  A
C513        C518   1.402       .  A
C514        C515   1.393       .  A
C514        H523   1.083       .  S
C515        C516   1.400       .  A
C515        H524   1.083       .  S
C516        C519   1.457       .  S
C516        C517   1.400       .  A
C517        C518   1.386       .  A
C517        H525   1.083       .  S
C518        H526   1.084       .  S
C519        H527   1.085       .  S
C519        C520   1.343       .  D
C520        H528   1.087       .  S
C521        H529   1.086       .  S
C521        C522   1.343       .  D
C522        H530   1.087       .  S
C531        C539   1.479   1_554  S
C531        C532   1.403       .  A
C531        C536   1.406       .  A
C532        C533   1.399       .  A
C532        H541   1.082       .  S
C533        C534   1.409       .  A
C533        H542   1.082       .  S
C534        C537   1.481       .  S
C534        C535   1.401       .  A
C535        C536   1.393       .  A
C535        H543   1.082       .  S
C536        H544   1.081       .  S
C537        H545   1.088       .  S
C537        C538   1.345       .  D
C538        H546   1.085       .  S
C539        H547   1.088       .  S
C539        C540   1.347       .  D
C540        H548   1.085       .  S
C549        C557   1.482       .  S
C549        C550   1.402       .  A
C549        C554   1.407       .  A
C550        C551   1.399       .  A
C550        H559   1.083       .  S
C551        C552   1.410       .  A
C551        H560   1.081       .  S
C552        C555   1.486   1_554  S
C552        C553   1.402       .  A
C553        C554   1.395       .  A
C553        H561   1.083       .  S
C554        H562   1.081       .  S
C555        H563   1.088       .  S
C555        C556   1.346       .  D
C556        H564   1.085       .  S
C557        H565   1.088       .  S
C557        C558   1.347       .  D
C558        H566   1.086       .  S
C567        C575   1.463       .  S
C567        C568   1.403       .  A
C567        C572   1.399       .  A
C568        C569   1.386   1_455  A
C568        H577   1.084       .  S
C569        C570   1.401       .  A
C569       H1162   1.083       .  S
C570        C571   1.401       .  A
C571        C572   1.395   1_655  A
C572        H580   1.083   1_556  S
C573        H581   1.085       .  S
C573       C1158   1.346       .  D
C574       C1157   1.346       .  D
C575        H583   1.086       .  S
C575        C576   1.344       .  D
C576        H584   1.087       .  S
H578       C1153   1.083       .  S
C585        C586   1.535       .  S
C585        C591   1.531       .  S
C585        C589   1.540       .  S
C585        C848   1.507       .  S
C586        H593   1.086       .  S
C586        C587   1.359       .  D
C587        C588   1.528       .  S
C587        C866   1.466       .  S
C588        C592   1.548       .  S
C588        C590   1.545       .  S
C588        H594   1.111       .  S
C589        H595   1.086       .  S
C589        C590   1.371       .  D
C590        C941   1.485       .  S
C591        H596   1.086       .  S
C591        C592   1.364       .  D
C597        C598   1.533       .  S
C597        C603   1.536       .  S
C597        C601   1.535       .  S
C597        C832   1.507       .  S
C598        H605   1.086       .  S
C598        C599   1.358       .  D
C599        C600   1.533       .  S
C599        C868   1.468       .  S
C600        C604   1.548       .  S
C600        C602   1.552       .  S
C600        H606   1.111       .  S
C601        H607   1.086       .  S
C601        C602   1.366       .  D
C602        C647   1.490       .  S
C603        H608   1.086       .  S
C603        C604   1.370       .  D
C604        C637   1.490       .  S
C609        C610   1.533       .  S
C609        C615   1.536       .  S
C609        C613   1.538       .  S
C609        C794   1.507       .  S
C610        H617   1.084       .  S
C610        C611   1.358       .  D
C611        C612   1.529       .  S
C611        C812   1.464       .  S
C612        C616   1.541       .  S
C612        C614   1.546       .  S
C612        H618   1.111       .  S
C613        H619   1.086       .  S
C613        C614   1.369       .  D
C614        C634   1.487       .  S
C615        H912   1.086       .  S
C615        C616   1.367       .  D
C616        C942   1.481       .  S
H620        C907   1.086       .  S
C621        C622   1.532       .  S
C621        C627   1.537       .  S
C621        C625   1.538   1_655  S
C621        C776   1.507       .  S
C622        H629   1.085       .  S
C622        C623   1.359       .  D
C623        C624   1.529       .  S
C623        C814   1.466       .  S
C624        C628   1.546       .  S
C624        C626   1.546       .  S
C624        H630   1.111       .  S
C625        C626   1.368   1_455  D
C627        H632   1.086       .  S
C627        C628   1.369       .  D
C628        C654   1.488       .  S
O633        C636   1.270       .  A
O633       Cd638   2.518       .  S
C634        O643   1.263       .  A
C634        O639   1.269       .  A
O635        C641   1.268       .  A
O635       Cd638   2.499       .  S
C636        O644   1.263       .  A
C637        O642   1.267       .  A
C637        O640   1.263       .  A
Cd638       O645   2.511       .  S
Cd638       O644   2.478       .  S
Cd638       O643   2.482       .  S
Cd638       O639   2.518       .  S
Cd638       O642   2.504       .  S
Cd638       O640   2.520       .  S
C641        O645   1.262       .  A
O646        C649   1.269       .  A
O646       Cd651   2.535   1_565  S
C647        O656   1.261       .  A
C647        O652   1.269       .  A
O648        C654   1.268       .  A
O648       Cd651   2.512       .  S
C649        C882   1.491       .  S
C649        O657   1.261       .  A
C650        C908   1.488   1_545  S
C650        O655   1.267       .  A
C650        O653   1.264   1_545  A
Cd651       O658   2.498       .  S
Cd651       O657   2.494   1_545  S
Cd651       O656   2.501       .  S
Cd651       O652   2.523       .  S
Cd651       O655   2.504       .  S
Cd651       O653   2.503   1_545  S
C654        O658   1.263       .  A
C659        C660   1.532       .  S
C659        C665   1.537       .  S
C659        C663   1.531       .  S
C659        C850   1.503       .  S
C660        H667   1.085       .  S
C660        C661   1.359       .  D
C661        C662   1.529       .  S
C661        C760   1.465       .  S
C662        C666   1.545       .  S
C662        C664   1.550       .  S
C662        H668   1.111       .  S
C663        H669   1.086       .  S
C663        C664   1.365       .  D
C665        H670   1.086       .  S
C665        C666   1.369       .  D
C666       C1003   1.486       .  S
C671        C672   1.530       .  S
C671        C677   1.536       .  S
C671        C675   1.542       .  S
C671        C830   1.508       .  S
C672        H679   1.084       .  S
C672        C673   1.357       .  D
C673        C674   1.530       .  S
C673        C758   1.466       .  S
C674        C678   1.547       .  S
C674        C676   1.544       .  S
C674        H680   1.111       .  S
C675        H681   1.086       .  S
C675        C676   1.371       .  D
C676        C723   1.489       .  S
C677        H682   1.086       .  S
C677        C678   1.368       .  D
C678        C715   1.486       .  S
C683        C684   1.533       .  S
C683        C689   1.539   1_655  S
C683        C687   1.533       .  S
C683        C778   1.504   1_655  S
C684        H691   1.085       .  S
C684        C685   1.358       .  D
C685        C686   1.528       .  S
C685        C740   1.465       .  S
C686        C690   1.544   1_655  S
C686        C688   1.547       .  S
C686        H692   1.111       .  S
C687        H693   1.086       .  S
C687        C688   1.365       .  D
C688        C710   1.486       .  S
C689        C690   1.371       .  D
C695        C696   1.533       .  S
C695        C701   1.532       .  S
C695        C699   1.538       .  S
C695        C796   1.505       .  S
C696        H703   1.085       .  S
C696        C697   1.360       .  D
C697        C698   1.529       .  S
C697        C742   1.468       .  S
C698        C702   1.547       .  S
C698        C700   1.545       .  S
C698        H704   1.111       .  S
C699        H997   1.086       .  S
C699        C700   1.369       .  D
C700       C1000   1.485       .  S
C701        H706   1.086       .  S
C701        C702   1.364       .  D
C702        C724   1.484       .  S
H705        C991   1.086       .  S
O707        C710   1.269       .  A
O707       Cd712   2.502       .  S
C708        C992   1.492   1_545  S
C708        O717   1.263       .  A
C708        O713   1.269       .  A
O709        C715   1.268       .  A
O709       Cd712   2.507       .  S
C710        O718   1.263       .  A
C711        C958   1.492       .  S
C711        O716   1.268       .  A
C711        O714   1.263       .  A
Cd712       O719   2.499       .  S
Cd712       O718   2.497       .  S
Cd712       O717   2.490       .  S
Cd712       O713   2.542       .  S
Cd712       O716   2.501   1_545  S
Cd712       O714   2.535   1_545  S
C715        O719   1.263       .  A
O720        C723   1.268       .  A
O720       Cd725   2.529       .  S
C721        O730   1.262       .  A
C721        O726   1.269       .  A
O722        C728   1.267       .  A
O722       Cd725   2.519       .  S
C723        O731   1.262       .  A
C724        O729   1.268       .  A
C724        O727   1.262       .  A
Cd725       O732   2.492       .  S
Cd725       O731   2.486       .  S
Cd725       O730   2.497       .  S
Cd725       O726   2.508       .  S
Cd725       O729   2.501       .  S
Cd725       O727   2.493       .  S
C728        O732   1.263       .  A
C733        C741   1.461       .  S
C733        C734   1.402       .  A
C733        C738   1.400       .  A
C734        C735   1.385       .  A
C734        H743   1.084       .  S
C735        C736   1.401       .  A
C735        H744   1.084       .  S
C736        C739   1.459       .  S
C736        C737   1.400       .  A
C737        C738   1.395       .  A
C737        H745   1.083       .  S
C738        H746   1.083       .  S
C739        H747   1.084       .  S
C739        C740   1.344       .  D
C740        H748   1.087       .  S
C741        H749   1.084       .  S
C741        C742   1.345       .  D
C742        H750   1.087       .  S
C751        C752   1.401       .  A
C751        C756   1.402       .  A
C752        C753   1.385       .  A
C753        C754   1.403       .  A
C753        H762   1.083       .  S
C754        C757   1.462       .  S
C754        C755   1.400       .  A
C755        C756   1.395       .  A
C755        H763   1.083       .  S
C756       H1056   1.083   1_545  S
C757        H765   1.084       .  S
C757        C758   1.344       .  D
C758        H766   1.087       .  S
C759        H767   1.085       .  S
C759       C1052   1.345       .  D
C760       C1051   1.344       .  D
H764       C1048   1.083       .  S
C769        C777   1.478   1_455  S
C769        C770   1.401   1_455  A
C769        C774   1.407       .  A
C770        C771   1.395       .  A
C770        H779   1.083       .  S
C771        C772   1.408   1_655  A
C771        H780   1.081       .  S
C772        C775   1.481       .  S
C772        C773   1.402       .  A
C773        C774   1.396       .  A
C774        H782   1.081       .  S
C775        H783   1.088       .  S
C775        C776   1.347   1_455  D
C776        H784   1.085       .  S
C777        H785   1.088       .  S
C777        C778   1.346   1_655  D
C778        H786   1.086       .  S
C787        C795   1.480       .  S
C787        C788   1.402       .  A
C787        C792   1.407       .  A
C788        C789   1.399       .  A
C788       H1089   1.083       .  S
C789        C790   1.411       .  A
C789        H798   1.081       .  S
C790        C793   1.483       .  S
C790        C791   1.400       .  A
C791        C792   1.392       .  A
C791        H799   1.083       .  S
C792        H800   1.081       .  S
C793        H801   1.088       .  S
C793        C794   1.343       .  D
C794        H802   1.085       .  S
C795       H1095   1.088       .  S
C795        C796   1.346       .  D
C796        H804   1.086       .  S
H797       C1080   1.083       .  S
H803       C1087   1.087       .  S
C805        C813   1.460       .  S
C805        C806   1.400       .  A
C805        C810   1.402       .  A
C806        C807   1.394       .  A
C806        H815   1.083       .  S
C807        C808   1.400       .  A
C807        H816   1.083       .  S
C808        C811   1.458       .  S
C808        C809   1.401       .  A
C809        C810   1.384       .  A
C809        H817   1.084       .  S
C810        H818   1.083       .  S
C811        H819   1.083       .  S
C811        C812   1.344       .  D
C812        H820   1.087       .  S
C813        H821   1.083       .  S
C813        C814   1.343       .  D
C814        H822   1.087       .  S
C823        C831   1.482   1_554  S
C823        C824   1.403       .  A
C823        C828   1.408       .  A
C824        C825   1.396       .  A
C824        H833   1.083       .  S
C825        C826   1.407       .  A
C825        H834   1.082       .  S
C826        C829   1.482       .  S
C826        C827   1.402       .  A
C827        C828   1.397       .  A
C827        H835   1.082       .  S
C828        H836   1.081       .  S
C829        H837   1.087       .  S
C829        C830   1.347       .  D
C830        H838   1.086       .  S
C831        H839   1.088       .  S
C831        C832   1.346       .  D
C832        H840   1.085       .  S
C841        C849   1.477       .  S
C841        C842   1.400       .  A
C841        C846   1.408       .  A
C842        C843   1.395       .  A
C842        H851   1.083       .  S
C843        C844   1.410       .  A
C843        H852   1.081       .  S
C844        C847   1.482   1_554  S
C844        C845   1.401       .  A
C845        C846   1.395       .  A
C845        H853   1.083       .  S
C846        H854   1.082       .  S
C847        H855   1.088       .  S
C847        C848   1.345       .  D
C848        H856   1.085       .  S
C849        H857   1.088       .  S
C849        C850   1.344       .  D
C850        H858   1.086       .  S
C859        C867   1.466       .  S
C859        C860   1.402       .  A
C859        C864   1.401   1_556  A
C860        C861   1.387       .  A
C860        H869   1.084       .  S
C861        C862   1.402       .  A
C862       C1157   1.465   1_545  S
C862        C863   1.402       .  A
C863        C864   1.396   1_556  A
C863       H1163   1.083   1_546  S
C864        H872   1.083       .  S
C865        H873   1.086       .  S
C865       C1154   1.464       .  S
C866       H1166   1.086       .  S
C867        H875   1.085       .  S
C867        C868   1.345       .  D
C868        H876   1.087       .  S
H871       C1155   1.083   1_554  S
H874       C1158   1.086   1_545  S
C877        C878   1.531       .  S
C877        C883   1.536       .  S
C877        C881   1.540       .  S
C877       C1140   1.511       .  S
C878        H885   1.085       .  S
C878        C879   1.358       .  D
C879        C880   1.532       .  S
C879       C1158   1.470       .  S
C880        C884   1.550       .  S
C880        C882   1.550       .  S
C880        H886   1.111       .  S
C881        H887   1.086       .  S
C881        C882   1.370       .  D
C883        H888   1.086       .  S
C883        C884   1.368       .  D
C889        C890   1.536       .  S
C889        C895   1.545       .  S
C889        C893   1.530       .  S
C889       C1124   1.505       .  S
C890        H897   1.086       .  S
C890        C891   1.361       .  D
C891        C892   1.528       .  S
C891       C1160   1.465       .  S
C892        C896   1.540       .  S
C892        C894   1.545       .  S
C892        H898   1.111       .  S
C893        H899   1.086       .  S
C893        C894   1.361       .  D
C894        C939   1.479       .  S
C895        H900   1.086       .  S
C895        C896   1.373       .  D
C896        C929   1.489       .  S
C901        C902   1.531       .  S
C901        C907   1.540   1_565  S
C901        C905   1.538       .  S
C901       C1086   1.511   1_565  S
C902        H909   1.086       .  S
C902        C903   1.356       .  D
C903        C904   1.529       .  S
C903       C1104   1.464       .  S
C904        C908   1.544       .  S
C904        C906   1.549       .  S
C904        H910   1.111       .  S
C905        H911   1.086       .  S
C905        C906   1.369       .  D
C906        C926   1.488       .  S
C907        C908   1.371   1_545  D
C913        C914   1.527       .  S
C913        C919   1.536       .  S
C913        C917   1.543   1_655  S
C913       C1068   1.517       .  S
C914        H921   1.086       .  S
C914        C915   1.358       .  D
C915        C916   1.530       .  S
C915       C1106   1.463       .  S
C916        C920   1.550       .  S
C916        C918   1.551       .  S
C916        H922   1.111       .  S
C917        C918   1.372   1_455  D
C919        H924   1.086       .  S
C919        C920   1.370       .  D
C920        C946   1.489       .  S
O925        C928   1.269       .  A
O925       Cd930   2.545       .  S
C926        O935   1.261       .  A
C926        O931   1.269       .  A
O927        C933   1.269       .  A
O927       Cd930   2.503       .  S
C928        O936   1.263       .  A
C929        O934   1.268       .  A
C929        O932   1.263       .  A
Cd930       O937   2.518       .  S
Cd930       O936   2.528       .  S
Cd930       O935   2.488       .  S
Cd930       O931   2.529       .  S
Cd930       O934   2.528       .  S
Cd930       O932   2.493       .  S
C933        O937   1.264       .  A
O938        C941   1.269       .  A
O938       Cd943   2.514       .  S
C939        O948   1.262       .  A
C939        O944   1.270       .  A
O940        C946   1.269       .  A
O940       Cd943   2.498       .  S
C941        O949   1.263       .  A
C942        O947   1.268       .  A
C942        O945   1.263       .  A
Cd943       O950   2.509       .  S
Cd943       O949   2.472       .  S
Cd943       O948   2.471       .  S
Cd943       O944   2.486       .  S
Cd943       O947   2.485       .  S
Cd943       O945   2.490       .  S
C946        O950   1.264       .  A
C951        C952   1.531       .  S
C951        C957   1.534       .  S
C951        C955   1.536       .  S
C951       C1142   1.508       .  S
C952        H959   1.086       .  S
C952        C953   1.359       .  D
C953        C954   1.535       .  S
C953       C1052   1.469       .  S
C954        C958   1.552       .  S
C954        C956   1.553       .  S
C954        H960   1.111       .  S
C955        H961   1.086       .  S
C955        C956   1.369       .  D
C957        H962   1.086       .  S
C957        C958   1.367       .  D
C963        C964   1.532       .  S
C963        C969   1.531       .  S
C963        C967   1.540       .  S
C963       C1122   1.506       .  S
C964        H971   1.086       .  S
C964        C965   1.357       .  D
C965        C966   1.529       .  S
C965       C1050   1.462       .  S
C966        C970   1.549       .  S
C966        C968   1.547       .  S
C966        H972   1.111       .  S
C967        H973   1.086       .  S
C967        C968   1.369       .  D
C968       C1015   1.488       .  S
C969        H974   1.086       .  S
C969        C970   1.366       .  D
C970       C1007   1.486       .  S
C975        C976   1.529   1_455  S
C975        C981   1.542       .  S
C975        C979   1.537   1_455  S
C975       C1070   1.515       .  S
C976        H983   1.085       .  S
C976        C977   1.359       .  D
C977        C978   1.530       .  S
C977       C1032   1.466       .  S
C978        C982   1.545   1_655  S
C978        C980   1.548       .  S
C978        H984   1.111       .  S
C979        H985   1.086       .  S
C979        C980   1.368       .  D
C980       C1002   1.489       .  S
C981        C982   1.373       .  D
C987        C988   1.529       .  S
C987        C993   1.535       .  S
C987        C991   1.542   1_565  S
C987       C1088   1.513   1_565  S
C988        H995   1.083       .  S
C988        C989   1.360       .  D
C989        C990   1.529       .  S
C989       C1034   1.467       .  S
C990        C994   1.546       .  S
C990        C992   1.547       .  S
C990        H996   1.111       .  S
C991        C992   1.373   1_545  D
C993        H998   1.086       .  S
C993        C994   1.366       .  D
C994       C1016   1.487       .  S
O999       C1002   1.268       .  A
O999      Cd1004   2.509       .  S
C1000      O1009   1.262       .  A
C1000      O1005   1.270       .  A
O1001      C1007   1.269       .  A
O1001     Cd1004   2.491       .  S
C1002      O1010   1.263       .  A
C1003      O1008   1.268       .  A
C1003      O1006   1.263       .  A
Cd1004     O1011   2.499       .  S
Cd1004     O1010   2.506       .  S
Cd1004     O1009   2.471       .  S
Cd1004     O1005   2.520       .  S
Cd1004     O1008   2.498       .  S
Cd1004     O1006   2.497       .  S
C1007      O1011   1.263       .  A
O1012      C1015   1.270       .  A
O1012     Cd1017   2.526       .  S
C1013      O1022   1.263       .  A
C1013      O1018   1.270       .  A
O1014      C1020   1.267       .  A
O1014     Cd1017   2.517       .  S
C1015      O1023   1.261       .  A
C1016      O1021   1.269       .  A
C1016      O1019   1.263       .  A
Cd1017     O1024   2.510       .  S
Cd1017     O1023   2.485       .  S
Cd1017     O1022   2.520       .  S
Cd1017     O1018   2.526       .  S
Cd1017     O1021   2.495       .  S
Cd1017     O1019   2.506       .  S
C1020      O1024   1.264       .  A
C1025      C1033   1.458       .  S
C1025      C1026   1.402       .  A
C1025      C1030   1.399       .  A
C1026      C1027   1.386       .  A
C1026      H1035   1.083       .  S
C1027      C1028   1.402       .  A
C1027      H1036   1.084       .  S
C1028      C1031   1.459       .  S
C1028      C1029   1.399       .  A
C1029      C1030   1.391       .  A
C1029      H1037   1.083       .  S
C1030      H1038   1.084       .  S
C1031      H1039   1.084       .  S
C1031      C1032   1.343       .  D
C1032      H1040   1.087       .  S
C1033      H1041   1.083       .  S
C1033      C1034   1.342       .  D
C1034      H1042   1.087       .  S
C1043      C1044   1.401       .  A
C1043      C1048   1.400       .  A
C1044      C1045   1.384       .  A
C1045      C1046   1.402       .  A
C1045      H1054   1.084       .  S
C1046      C1049   1.457       .  S
C1046      C1047   1.399       .  A
C1047      C1048   1.394       .  A
C1047      H1055   1.083       .  S
C1049      H1057   1.084       .  S
C1049      C1050   1.344       .  D
C1050      H1058   1.087       .  S
C1051      H1059   1.083       .  S
C1061      C1069   1.488       .  S
C1061      C1062   1.405   1_455  A
C1061      C1066   1.406       .  A
C1062      C1063   1.402       .  A
C1062      H1071   1.083       .  S
C1063      C1064   1.409   1_655  A
C1063      H1072   1.081       .  S
C1064      C1067   1.490       .  S
C1064      C1065   1.404       .  A
C1065      C1066   1.398       .  A
C1066      H1074   1.081       .  S
C1067      H1075   1.087       .  S
C1067      C1068   1.350   1_455  D
C1068      H1076   1.085       .  S
C1069      H1077   1.087   1_455  S
C1069      C1070   1.351       .  D
C1070      H1078   1.086       .  S
C1079      C1087   1.487       .  S
C1079      C1080   1.403       .  A
C1079      C1084   1.409   1_545  A
C1080      C1081   1.399       .  A
C1081      C1082   1.409       .  A
C1081      H1090   1.081       .  S
C1082      C1085   1.486   1_545  S
C1082      C1083   1.403   1_545  A
C1083      C1084   1.398       .  A
C1083      H1091   1.083       .  S
C1084      H1092   1.081       .  S
C1085      H1093   1.088       .  S
C1085      C1086   1.349   1_565  D
C1086      H1094   1.085       .  S
C1087      C1088   1.348       .  D
C1088      H1096   1.085       .  S
C1097      C1105   1.456       .  S
C1097      C1098   1.399       .  A
C1097      C1102   1.402       .  A
C1098      C1099   1.392       .  A
C1098      H1107   1.083       .  S
C1099      C1100   1.399       .  A
C1099      H1108   1.083       .  S
C1100      C1103   1.456       .  S
C1100      C1101   1.400       .  A
C1101      C1102   1.386       .  A
C1101      H1109   1.084       .  S
C1102      H1110   1.084       .  S
C1103      H1111   1.085       .  S
C1103      C1104   1.342       .  D
C1104      H1112   1.087       .  S
C1105      H1113   1.085       .  S
C1105      C1106   1.342       .  D
C1106      H1114   1.087       .  S
C1115      C1123   1.479   1_554  S
C1115      C1116   1.403       .  A
C1115      C1120   1.406       .  A
C1116      C1117   1.398       .  A
C1116      H1125   1.082       .  S
C1117      C1118   1.409       .  A
C1117      H1126   1.082       .  S
C1118      C1121   1.480       .  S
C1118      C1119   1.400       .  A
C1119      C1120   1.393       .  A
C1119      H1127   1.082       .  S
C1120      H1128   1.081       .  S
C1121      H1129   1.088       .  S
C1121      C1122   1.344       .  D
C1122      H1130   1.085       .  S
C1123      H1131   1.088       .  S
C1123      C1124   1.347       .  D
C1124      H1132   1.085       .  S
C1133      C1141   1.483       .  S
C1133      C1134   1.402       .  A
C1133      C1138   1.408       .  A
C1134      C1135   1.398       .  A
C1134      H1143   1.083       .  S
C1135      C1136   1.410       .  A
C1135      H1144   1.081       .  S
C1136      C1139   1.486   1_554  S
C1136      C1137   1.402       .  A
C1137      C1138   1.396       .  A
C1137      H1145   1.083       .  S
C1138      H1146   1.081       .  S
C1139      H1147   1.088       .  S
C1139      C1140   1.347       .  D
C1140      H1148   1.085       .  S
C1141      H1149   1.087       .  S
C1141      C1142   1.346       .  D
C1142      H1150   1.085       .  S
C1151      C1159   1.465       .  S
C1151      C1152   1.403       .  A
C1151      C1156   1.400       .  A
C1152      C1153   1.388       .  A
C1152      H1161   1.084       .  S
C1153      C1154   1.402       .  A
C1154      C1155   1.401       .  A
C1155      C1156   1.396       .  A
C1156      H1164   1.083   1_556  S
C1157      H1165   1.084       .  S
C1159      H1167   1.085       .  S
C1159      C1160   1.344       .  D
C1160      H1168   1.087       .  S
