geometry optimzed in LAMMPS
_audit_creation_date              2020-11-30 
_audit_creation_method            'lammps2cif' 
_symmetry_space_group_name_H-M    'P1' 
_symmetry_Int_Tables_number       1 
_symmetry_cell_setting            triclinic 
loop_ 
_symmetry_equiv_pos_as_xyz 
  x,y,z 
_cell_length_a                    40.75879645 
_cell_length_b                    40.6601626977414 
_cell_length_c                    40.64187471486239 
_cell_angle_alpha                 90.00426010844919 
_cell_angle_beta                  90.00063790776026 
_cell_angle_gamma                 90.0035430660812 
loop_ 
_atom_site_label 
_atom_site_type_symbol 
_atom_site_fract_x 
_atom_site_fract_y 
_atom_site_fract_z 
_atom_site_charge 
O1          O  0.61201485  0.58145114  0.67146430    -0.89100
C2          C  0.62487418  0.53971292  0.58062629     0.86900
Mg3        Mg  0.56751332  0.60646923  0.68639154     1.58100
O4          O  0.66782790  0.61282031  0.59173874    -0.88800
O5          O  0.66485382  0.59126511  0.66601251    -0.76100
C6          C  0.52952688  0.70679927  0.56263232     0.92000
O7          O  0.55997547  0.54817914  0.62400973    -0.76000
O8          O  0.51845432  0.68855846  0.58519272    -0.83500
Mg9        Mg  0.60810045  0.53376886  0.64987415     1.58000
C10         C  0.67279745  0.68533166  0.52460685     0.91900
O11         O  0.65276409  0.51603511  0.67970583    -0.81700
H12         H  0.69880703  0.64027350  0.61821088    -0.07100
C13         C  0.57849955  0.62244525  0.54512682     0.86900
O14         O  0.59163853  0.65582282  0.67181779    -0.76200
O15         O  0.63583967  0.54881602  0.60758692    -0.89000
O16         O  0.67522752  0.65444004  0.52757162    -0.81800
C17         C  0.71032854  0.55855589  0.53588912     0.92000
C18         C  0.68358494  0.51259267  0.67696416     0.91900
Mg19       Mg  0.61066194  0.68242390  0.57704974     1.58000
O20         O  0.55999884  0.70535873  0.55340447    -0.81700
O21         O  0.65867178  0.66519363  0.60228774    -0.76000
O22         O  0.70791331  0.54774496  0.56585529    -0.81800
O23         O  0.57919473  0.51602815  0.69159448    -0.83500
O24         O  0.51734236  0.66971545  0.65674742    -0.81800
C25         C  0.67618502  0.63929176  0.60435447     0.86300
O26         O  0.58345033  0.66512967  0.61906794    -0.89000
O27         O  0.60431015  0.63391556  0.55646463    -0.89100
O28         O  0.55190840  0.62201842  0.56155800    -0.76100
Mg29       Mg  0.68353514  0.56873310  0.61709672     1.58000
O30         O  0.69292424  0.58210950  0.52559346    -0.83500
H31         H  0.63806229  0.60508552  0.70581019    -0.07200
O32         O  0.55014970  0.59994374  0.63669952    -0.88800
H33         H  0.51894024  0.57280766  0.61016100    -0.07100
H34         H  0.60673509  0.69712999  0.64822060    -0.07200
C35         C  0.54183811  0.57369439  0.62356002     0.86300
C36         C  0.63811016  0.59283855  0.68219757     0.86900
C37         C  0.59413191  0.67381437  0.64627099     0.86900
H38         H  0.57888581  0.61131169  0.52097141    -0.07200
O39         O  0.62523522  0.55815144  0.55530093    -0.76300
Mg40       Mg  0.53589190  0.64400544  0.61116071     1.58000
H41         H  0.61336543  0.51581690  0.57890793    -0.07200
C42         C  0.55457498  0.52524406  0.70800924     0.91900
O43         O  0.52315288  0.64054498  0.70261630    -0.83500
C44         C  0.51309765  0.66643947  0.68738748     0.92000
O45         O  0.69899251  0.52382558  0.65153082    -0.83500
Mg46       Mg  0.64843399  0.60819075  0.54287670     1.58200
O47         O  0.54361333  0.55506988  0.70653001    -0.81800
O48         O  0.64711087  0.70072941  0.53492121    -0.83500
O49         O  0.86310975  0.58105160  0.33808823    -0.89100
C50         C  0.87100114  0.67217604  0.29488296     0.86900
Mg51       Mg  0.82009976  0.56393127  0.36455003     1.58100
O52         O  0.91686971  0.66359943  0.36646073    -0.88800
O53         O  0.91597303  0.58916419  0.34588358    -0.76100
C54         C  0.78051788  0.68646934  0.46505781     0.92000
O55         O  0.80809789  0.62607621  0.30645657    -0.76000
O56         O  0.76980718  0.66312923  0.44764476    -0.83500
Mg57       Mg  0.85682479  0.60239312  0.29052303     1.58000
C58         C  0.92101040  0.73063110  0.43800274     0.91900
O59         O  0.90177338  0.57437808  0.27132089    -0.81700
H60         H  0.94981689  0.63864297  0.39299741    -0.07100
C61         C  0.82548035  0.70551082  0.37876691     0.86900
O62         O  0.84517284  0.57964665  0.41311712    -0.76200
O63         O  0.88329068  0.64589772  0.30420793    -0.89000
O64         O  0.92262435  0.72791185  0.40707145    -0.81800
C65         C  0.95563491  0.72087800  0.31113230     0.92000
C66         C  0.93227401  0.57809718  0.26651156     0.91900
Mg67       Mg  0.86117529  0.67559191  0.43768259     1.58000
O68         O  0.81042875  0.69709178  0.46225477    -0.81700
O69         O  0.90965919  0.65253294  0.41905294    -0.76000
O70         O  0.95431499  0.69074356  0.30050198    -0.81800
O71         O  0.82942567  0.55963598  0.27373275    -0.83500
O72         O  0.77103789  0.59167455  0.42935844    -0.81800
C73         C  0.92654846  0.65140295  0.39268011     0.86300
O74         O  0.83530296  0.63216323  0.42185678    -0.89000
O75         O  0.85225359  0.69559766  0.38930832    -0.89100
O76         O  0.79968549  0.68786006  0.37971069    -0.76100
Mg77       Mg  0.93212798  0.63850752  0.32222840     1.58000
O78         O  0.93782473  0.73062754  0.33462949    -0.83500
H79         H  0.89157735  0.54845548  0.36137111    -0.07200
O80         O  0.80029028  0.61267212  0.35841456    -0.88800
H81         H  0.76711482  0.63775500  0.33226992    -0.07100
H82         H  0.86052559  0.60443637  0.45365431    -0.07200
C83         C  0.79063909  0.62547219  0.33245174     0.86300
C84         C  0.89007316  0.57180217  0.34873115     0.86900
C85         C  0.84723498  0.60554133  0.43066001     0.86900
H86         H  0.82424947  0.72948679  0.36733354    -0.07200
O87         O  0.87072048  0.69778297  0.31289559    -0.76300
Mg88       Mg  0.78666312  0.63779123  0.40268932     1.58000
H89         H  0.85886145  0.67296505  0.27124382    -0.07200
C90         C  0.80551971  0.54252652  0.28339961     0.91900
O91         O  0.77775378  0.54560612  0.40076718    -0.83500
C92         C  0.76793132  0.56084216  0.42680503     0.92000
O93         O  0.94731013  0.60408609  0.27698979    -0.83500
Mg94       Mg  0.89488768  0.71140613  0.36207435     1.58200
O95         O  0.79532430  0.54329760  0.31356824    -0.81800
O96         O  0.89617176  0.71943596  0.45417323    -0.83500
O97         O  0.88105702  0.44820749  0.13223067    -0.89100
C98         C  0.89492823  0.36410748  0.18604521     0.86900
Mg99       Mg  0.83814973  0.45619715  0.10148685     1.58100
O100        O  0.94525069  0.37059107  0.11704061    -0.88800
O101        O  0.93496028  0.44637915  0.12937999    -0.76100
C102        C  0.81947545  0.31764279  0.01668007     0.92000
O103        O  0.82837085  0.40123502  0.16565786    -0.76000
O104        O  0.80578445  0.34289595  0.02837427    -0.83500
Mg105      Mg  0.87308509  0.43192511  0.18147093     1.58000
C106        C  0.96192881  0.29415951  0.05450785     0.91900
O107        O  0.91250691  0.46641821  0.20154363    -0.81700
H108        H  0.97692170  0.39595204  0.08929696    -0.07100
C109        C  0.86095948  0.31602557  0.10500535     0.86900
O110        O  0.86834498  0.43837060  0.05652653    -0.76200
O111        O  0.90464396  0.39059192  0.17455549    -0.89000
O112        O  0.96195912  0.30218549  0.08462152    -0.81800
C113        C  0.98394050  0.32516753  0.18262468     0.92000
C114        C  0.94239777  0.46633300  0.20993303     0.91900
Mg115      Mg  0.89667611  0.34215260  0.04492879     1.58000
O116        O  0.85000523  0.31085377  0.02267081    -0.81700
O117        O  0.94101059  0.37337177  0.06296807    -0.76000
O118        O  0.97740688  0.35550231  0.18991885    -0.81800
O119        O  0.84127880  0.47342852  0.19087645    -0.83500
O120        O  0.79647473  0.41558167  0.03799381    -0.81800
C121        C  0.95540092  0.38042337  0.08998418     0.86300
O122        O  0.86524242  0.38430566  0.05332574    -0.89000
O123        O  0.88703604  0.32789575  0.09479309    -0.89100
O124        O  0.83344853  0.33005810  0.10028409    -0.76100
Mg125      Mg  0.95366403  0.40188223  0.15976856     1.58000
O126        O  0.97187142  0.31132935  0.15759360    -0.83500
H127        H  0.90724597  0.48176086  0.10761657    -0.07200
O128        O  0.82423721  0.40647408  0.11200814    -0.88800
H129        H  0.79137419  0.38152809  0.13867591    -0.07100
H130        H  0.88952148  0.41137802  0.02022329    -0.07200
C131        C  0.81348399  0.39621903  0.13860058     0.86300
C132        C  0.90749928  0.45981598  0.12263332     0.86900
C133        C  0.87472806  0.41112891  0.04230169     0.86900
H134        H  0.86171247  0.29361504  0.11929993    -0.07200
O135        O  0.89967325  0.33688278  0.17135078    -0.76300
Mg136      Mg  0.81648667  0.37512890  0.07055897     1.58000
H137        H  0.88093663  0.36426476  0.20864517    -0.07200
C138        C  0.81520636  0.48414252  0.17828051     0.91900
O139        O  0.79586804  0.46462282  0.06209340    -0.83500
C140        C  0.78889803  0.44575387  0.03761522     0.92000
O141        O  0.96107723  0.44167808  0.20271834    -0.83500
Mg142      Mg  0.92920401  0.32116271  0.12573305     1.58200
O143        O  0.80709354  0.47778053  0.14817571    -0.81800
O144        O  0.93690592  0.30032974  0.03609326    -0.83500
C145        C  0.76339354  0.50349793  0.97163609     0.79500
N146        N  0.75041864  0.48323696  0.94841399    -0.78800
C147        C  0.74932725  0.45040263  0.95380489     0.81900
N148        N  0.76087617  0.43823641  0.98321781    -0.78800
C149        C  0.77354706  0.45871295  0.00683000     0.82000
N150        N  0.77472739  0.49123296  0.00056772    -0.80500
C151        C  0.00265722  0.52544717  0.24398673     0.79500
N152        N  0.98857514  0.49831972  0.23082815    -0.78800
C153        C  0.95577163  0.49632921  0.22706355     0.81900
N154        N  0.93659627  0.52250953  0.23746145    -0.78800
C155        C  0.95105073  0.55029039  0.25089900     0.82000
N156        N  0.98397432  0.55112976  0.25374420    -0.80500
O157        O  0.63243553  0.37576892  0.80425879    -0.89100
C158        C  0.64356007  0.42901015  0.88930865     0.86900
Mg159      Mg  0.58932087  0.34462706  0.79596707     1.58100
O160        O  0.69634990  0.36171849  0.88318805    -0.88800
O161        O  0.68642831  0.37442663  0.80747119    -0.76100
C162        C  0.57268186  0.25962103  0.93274911     0.92000
O163        O  0.57834167  0.40832336  0.85047588    -0.76000
O164        O  0.56013773  0.26940958  0.90625048    -0.83500
Mg165      Mg  0.62349313  0.42487772  0.82059528     1.58000
C166        C  0.71319885  0.29832727  0.95894536     0.91900
O167        O  0.66357222  0.44595990  0.78719544    -0.81700
H168        H  0.72913513  0.33534283  0.85777087    -0.07100
C169        C  0.61197178  0.34694196  0.93600677     0.86900
O170        O  0.62007820  0.29964547  0.81277725    -0.76200
O171        O  0.65414063  0.41824518  0.86283999    -0.89000
O172        O  0.71252946  0.32863801  0.95160598    -0.81800
C173        C  0.73119038  0.42847872  0.93069894     0.92000
C174        C  0.69312066  0.45550854  0.78840210     0.91900
Mg175      Mg  0.64916388  0.28834481  0.90949331     1.58000
O176        O  0.60265938  0.26646799  0.94074743    -0.81700
O177        O  0.69353189  0.30759470  0.87909909    -0.76000
O178        O  0.72526220  0.43583278  0.90021220    -0.81800
O179        O  0.59261854  0.43385604  0.77794288    -0.83500
O180        O  0.54812458  0.27917658  0.83605497    -0.81800
C181        C  0.70735626  0.33513117  0.87295391     0.86300
O182        O  0.61800128  0.29666957  0.86683447    -0.89000
O183        O  0.63836940  0.33757520  0.92422543    -0.89100
O184        O  0.58476867  0.34179503  0.92158826    -0.76100
Mg185      Mg  0.70381418  0.40513434  0.85267227     1.58000
O186        O  0.72013637  0.40257735  0.94374049    -0.83500
H187        H  0.66014937  0.35169477  0.77152006    -0.07200
O188        O  0.57561603  0.35461984  0.84556996    -0.88800
H189        H  0.54182245  0.38056125  0.87005480    -0.07100
H190        H  0.64223523  0.26371943  0.83951571    -0.07200
C191        C  0.56410970  0.38094553  0.85563647     0.86300
C192        C  0.65944162  0.36677800  0.79341655     0.86900
C193        C  0.62722748  0.28563835  0.83993734     0.86900
H194        H  0.61215514  0.36088099  0.95866021    -0.07200
O195        O  0.64845876  0.41419159  0.91645587    -0.76300
Mg196      Mg  0.56890518  0.31236187  0.87599838     1.58000
H197        H  0.62877065  0.45108216  0.88920123    -0.07200
C198        C  0.56617066  0.42127622  0.76811375     0.91900
O199        O  0.54599795  0.30554010  0.78830588    -0.83500
C200        C  0.53883485  0.28046080  0.80642364     0.92000
O201        O  0.71116071  0.44876748  0.81364292    -0.83500
Mg202      Mg  0.67911255  0.36935054  0.93238271     1.58200
O203        O  0.55803852  0.39135454  0.77516233    -0.81800
O204        O  0.68890240  0.27938815  0.95171242    -0.83500
O205        O  0.41084592  0.16645122  0.88689582    -0.89100
C206        C  0.45380976  0.07518029  0.87660347     0.86900
Mg207      Mg  0.38533055  0.18244867  0.93122899     1.58100
O208        O  0.38156975  0.08361834  0.83183634    -0.88800
O209        O  0.40159354  0.15818549  0.83402680    -0.76100
C210        C  0.28753859  0.05764564  0.96906883     0.92000
O211        O  0.44336169  0.12032725  0.94064474    -0.76000
O212        O  0.30453027  0.08159503  0.97887511    -0.83500
Mg213      Mg  0.45833837  0.14477818  0.89185250     1.58000
C214        C  0.31082581  0.01560123  0.82811650     0.91900
O215        O  0.47658623  0.17324013  0.84633663    -0.81700
H216        H  0.35445465  0.10852991  0.79928808    -0.07100
C217        C  0.37206865  0.04116345  0.92286904     0.86900
O218        O  0.33642710  0.16690595  0.90638795    -0.76200
O219        O  0.44410548  0.10159116  0.86490122    -0.89000
O220        O  0.34157485  0.01878969  0.82572245    -0.81800
C221        C  0.43669412  0.02706467  0.79172373     0.92000
C222        C  0.48055455  0.16988475  0.81552338     0.91900
Mg223      Mg  0.31201519  0.07020976  0.88851455     1.58000
O224        O  0.28943503  0.04670011  0.93922043    -0.81700
O225        O  0.32912784  0.09411853  0.83980156    -0.76000
O226        O  0.44723810  0.05722508  0.79329664    -0.81800
O227        O  0.47575681  0.18702813  0.92032124    -0.83500
O228        O  0.31971976  0.15390542  0.98087642    -0.81800
C229        C  0.35518781  0.09561516  0.82252831     0.86300
O230        O  0.32806040  0.11400652  0.91462064    -0.89000
O231        O  0.36051255  0.05073813  0.89632744    -0.89100
O232        O  0.37155545  0.05884782  0.94872491    -0.76100
Mg233      Mg  0.42525983  0.10923077  0.81632151     1.58000
O234        O  0.41328419  0.01714140  0.80945590    -0.83500
H235        H  0.38620858  0.19860167  0.85903434    -0.07200
O236        O  0.39176256  0.13372016  0.94969964    -0.88800
H237        H  0.41840561  0.10807631  0.98206818    -0.07100
H238        H  0.29610730  0.14232607  0.89027629    -0.07200
C239        C  0.41779721  0.12072259  0.95867698     0.86300
C240        C  0.39925530  0.17547793  0.86014751     0.86900
C241        C  0.31911449  0.14092852  0.90344103     0.86900
H242        H  0.38410009  0.01748523  0.92378317    -0.07200
O243        O  0.43611032  0.04938956  0.87660534    -0.76300
Mg244      Mg  0.34785767  0.10819041  0.96296567     1.58000
H245        H  0.47756341  0.07438021  0.88841506    -0.07200
C246        C  0.46683128  0.20355887  0.94505461     0.91900
O247        O  0.35041128  0.19880641  0.97552940    -0.83500
C248        C  0.32390631  0.18446445  0.98546276     0.92000
O249        O  0.46969158  0.14411233  0.80041872    -0.83500
Mg250      Mg  0.38675608  0.03560210  0.85304125     1.58200
O251        O  0.43690568  0.20269336  0.95582069    -0.81800
O252        O  0.29524054  0.02647019  0.85348943    -0.83500
C253        C  0.52287280  0.24310624  0.00644125     0.79500
N254        N  0.54920645  0.25010658  0.98713980    -0.78800
C255        C  0.54867000  0.24351898  0.95474490     0.81900
N256        N  0.52097231  0.22993020  0.94158508    -0.78800
C257        C  0.49417626  0.22255727  0.96045738     0.82000
N258        N  0.49523962  0.22933946  0.99312893    -0.80500
C259        C  0.50075468  0.22461325  0.74550566     0.79500
N260        N  0.51511046  0.25084343  0.76005524    -0.78800
C261        C  0.52045749  0.25145525  0.79273065     0.81900
N262        N  0.51035498  0.22484147  0.81141975    -0.78800
C263        C  0.49567818  0.19791693  0.79660341     0.82000
N264        N  0.49135909  0.19828325  0.76361531    -0.80500
C265        C  0.50011518  0.97746431  0.74872630     0.79500
N266        N  0.48347384  0.94963458  0.74102520    -0.78800
C267        C  0.45126169  0.94668067  0.74769085     0.81900
N268        N  0.43549166  0.97256873  0.76276132    -0.78800
C269        C  0.45222412  0.00096334  0.77087485     0.82000
N270        N  0.48449084  0.00301106  0.76358517    -0.80500
C271        C  0.99206837  0.03060014  0.25628984     0.79500
N272        N  0.00514625  0.00279625  0.26986601    -0.78800
C273        C  0.03782294  0.00101205  0.27550845     0.81900
N274        N  0.05703697  0.02722723  0.26701574    -0.78800
C275        C  0.04415453  0.05508071  0.25334580     0.82000
N276        N  0.01154711  0.05650026  0.24806340    -0.80500
C277        C  0.27108383  0.25624820  0.00283287     0.79500
N278        N  0.29685964  0.23698291  0.99466720    -0.78800
C279        C  0.29606969  0.20423859  0.99976168     0.81900
N280        N  0.26833091  0.19067970  0.01406775    -0.78800
C281        C  0.24213029  0.21049293  0.02311830     0.82000
N282        N  0.24396969  0.24306984  0.01693511    -0.80500
C283        C  0.24405211  0.99723541  0.02217487     0.79500
N284        N  0.23691482  0.01594197  0.04896736    -0.78800
C285        C  0.24459974  0.04813366  0.04939232     0.81900
N286        N  0.25942603  0.06148958  0.02237943    -0.78800
C287        C  0.26690096  0.04296156  0.99532298     0.82000
N288        N  0.25903873  0.01069316  0.99536179    -0.80500
C289        C  0.25264352  0.00392550  0.27296783     0.79500
N290        N  0.23891426  0.01838700  0.24618860    -0.78800
C291        C  0.20631531  0.02460884  0.24507153     0.81900
N292        N  0.18708737  0.01540001  0.27165247    -0.78800
C293        C  0.20111945  0.00080727  0.29900373     0.82000
N294        N  0.23377301  0.99551140  0.29902632    -0.80500
C295        C  0.02384075  0.26073375  0.99589641     0.79500
N296        N  0.99569741  0.27349942  0.00857208    -0.78800
C297        C  0.99251852  0.27840247  0.04127323     0.81900
N298        N  0.01812099  0.26961331  0.06144851    -0.78800
C299        C  0.04680103  0.25684414  0.04880607     0.82000
N300        N  0.04924965  0.25257949  0.01594338    -0.80500
C301        C  0.01263042  0.28346223  0.25797004     0.79500
N302        N  0.00156873  0.30720151  0.23725201    -0.78800
C303        C  0.00322617  0.30297865  0.20436750     0.81900
N304        N  0.01627809  0.27424176  0.19227442    -0.78800
C305        C  0.02795710  0.25031301  0.21300201     0.82000
N306        N  0.02567580  0.25515127  0.24580536    -0.80500
O307        O  0.13341309  0.12265230  0.19978058    -0.89100
C308        C  0.14277209  0.06971674  0.11514600     0.86900
Mg309      Mg  0.09163511  0.15464624  0.20856307     1.58100
O310        O  0.19542052  0.13707382  0.12047168    -0.88800
O311        O  0.18734330  0.12412293  0.19655682    -0.76100
C312        C  0.07088219  0.24008308  0.07082641     0.92000
O313        O  0.07838192  0.09126075  0.15395432    -0.76000
O314        O  0.05872049  0.23024798  0.09758645    -0.83500
Mg315      Mg  0.12330490  0.07381835  0.18354658     1.58000
C316        C  0.21234254  0.19791721  0.04126575     0.91900
O317        O  0.16328176  0.05215642  0.21661343    -0.81700
H318        H  0.22918726  0.16378941  0.14421857    -0.07100
C319        C  0.11052803  0.15194527  0.06753262     0.86900
O320        O  0.12308939  0.19868771  0.19004796    -0.76200
O321        O  0.15371228  0.08035827  0.14151443    -0.89000
O322        O  0.21248200  0.16822007  0.05057640    -0.81800
C323        C  0.22904585  0.07010685  0.07375502     0.92000
C324        C  0.19292253  0.04286740  0.21564182     0.91900
Mg325      Mg  0.14876582  0.21031274  0.09225435     1.58000
O326        O  0.10080692  0.23290749  0.06241252    -0.81700
O327        O  0.19378354  0.19130857  0.12218034    -0.76000
O328        O  0.22286982  0.06205202  0.10391441    -0.81800
O329        O  0.09220237  0.06503325  0.22599127    -0.83500
O330        O  0.05120378  0.21964454  0.16975331    -0.81800
C331        C  0.20712015  0.16379525  0.12945848     0.86300
O332        O  0.11873746  0.20302292  0.13602947    -0.89000
O333        O  0.13719598  0.16103275  0.07892424    -0.89100
O334        O  0.08359361  0.15755926  0.08231868    -0.76100
Mg335      Mg  0.20340230  0.09344091  0.15124186     1.58000
O336        O  0.21933977  0.09678427  0.06147625    -0.83500
H337        H  0.16111551  0.14622431  0.23288003    -0.07200
O338        O  0.07676294  0.14501469  0.15894925    -0.88800
H339        H  0.04227034  0.11976281  0.13473018    -0.07100
H340        H  0.14532474  0.23436916  0.16304170    -0.07200
C341        C  0.06465450  0.11891920  0.14897830     0.86300
C342        C  0.16040986  0.13142248  0.21079241     0.86900
C343        C  0.12949688  0.21303254  0.16281293     0.86900
H344        H  0.11020595  0.13799550  0.04488772    -0.07200
O345        O  0.14738089  0.08458149  0.08798691    -0.76300
Mg346      Mg  0.06926082  0.18716413  0.12844791     1.58000
H347        H  0.12784050  0.04774085  0.11538264    -0.07200
C348        C  0.06637655  0.07839161  0.23645164     0.91900
O349        O  0.05050157  0.19498325  0.21843524    -0.83500
C350        C  0.04379055  0.21978957  0.19996336     0.92000
O351        O  0.21110129  0.04987410  0.19055609    -0.83500
Mg352      Mg  0.17816332  0.12903942  0.07150170     1.58200
O353        O  0.05929205  0.10873993  0.23005532    -0.81800
O354        O  0.18778425  0.21684462  0.04817734    -0.83500
O355        O  0.36400080  0.91559948  0.66426351    -0.89100
C356        C  0.37060656  0.82388561  0.70596545     0.86900
Mg357      Mg  0.32125937  0.93276005  0.63794851     1.58100
O358        O  0.41675567  0.83249045  0.63455343    -0.88800
O359        O  0.41660309  0.90682491  0.65545487    -0.76100
C360        C  0.27988605  0.81004276  0.53703821     0.92000
O361        O  0.30779806  0.87177584  0.69677814    -0.76000
O362        O  0.26945252  0.83278642  0.55544231    -0.83500
Mg363      Mg  0.35729183  0.89426926  0.71200052     1.58000
C364        C  0.42133108  0.76579402  0.56172729     0.91900
O365        O  0.40271829  0.92061275  0.72994046    -0.81700
H366        H  0.44994696  0.85719771  0.60808004    -0.07100
C367        C  0.32599115  0.79043212  0.62276405     0.86900
O368        O  0.34553368  0.91635241  0.58919889    -0.76200
O369        O  0.38306480  0.85032520  0.69724806    -0.89000
O370        O  0.42305902  0.76835154  0.59276495    -0.81800
C371        C  0.45533194  0.77527492  0.69048174     0.92000
C372        C  0.43333278  0.91762107  0.73391841     0.91900
Mg373      Mg  0.36110364  0.82067310  0.56329940     1.58000
O374        O  0.30995145  0.79959101  0.53882635    -0.81700
O375        O  0.40978163  0.84346389  0.58192430    -0.76000
O376        O  0.45369166  0.80531340  0.70119307    -0.81800
O377        O  0.33125745  0.93856732  0.72996446    -0.83500
O378        O  0.27066350  0.90453206  0.57384440    -0.81800
C379        C  0.42659456  0.84458873  0.60835256     0.86300
O380        O  0.33536877  0.86394862  0.58010059    -0.89000
O381        O  0.35258452  0.80001804  0.61146633    -0.89100
O382        O  0.30045280  0.80847231  0.62287905    -0.76100
Mg383      Mg  0.43223340  0.85737184  0.67894056     1.58000
O384        O  0.43828164  0.76562066  0.66634456    -0.83500
H385        H  0.39251217  0.94796448  0.64071730    -0.07200
O386        O  0.30114436  0.88406077  0.64446803    -0.88800
H387        H  0.26677879  0.86073665  0.67071014    -0.07100
H388        H  0.36053680  0.89181290  0.54839724    -0.07200
C389        C  0.29070679  0.87221171  0.67055289     0.86300
C390        C  0.39091745  0.92457114  0.65325858     0.86900
C391        C  0.34736786  0.89058546  0.57145600     0.86900
H392        H  0.32479997  0.76643302  0.63415378    -0.07200
O393        O  0.37087770  0.79838449  0.68773333    -0.76300
Mg394      Mg  0.28700306  0.85848102  0.60021859     1.58000
H395        H  0.35800831  0.82278264  0.72934925    -0.07200
C396        C  0.30845847  0.95681230  0.71949914     0.91900
O397        O  0.27829460  0.95059491  0.60236340    -0.83500
C398        C  0.26763041  0.93535595  0.57663911     0.92000
O399        O  0.44864613  0.89180867  0.72359201    -0.83500
Mg400      Mg  0.39531881  0.78459088  0.63852711     1.58200
O401        O  0.29849805  0.95542902  0.68919848    -0.81800
O402        O  0.39633469  0.77705598  0.54579824    -0.83500
O403        O  0.11020987  0.91738167  0.33130481    -0.89100
C404        C  0.12196609  0.95846124  0.42292833     0.86900
Mg405      Mg  0.06600165  0.89203948  0.31558540     1.58100
O406        O  0.16591063  0.88606097  0.41179804    -0.88800
O407        O  0.16304475  0.90795219  0.33767545    -0.76100
C408        C  0.02885122  0.79028496  0.43832321     0.92000
O409        O  0.05758458  0.94975458  0.37852237    -0.76000
O410        O  0.01770849  0.80875243  0.41600114    -0.83500
Mg411      Mg  0.10598193  0.96477460  0.35338909     1.58000
C412        C  0.17145679  0.81321805  0.47803400     0.91900
O413        O  0.15110601  0.98285750  0.32405734    -0.81700
H414        H  0.19767442  0.85941080  0.38546621    -0.07100
C415        C  0.07629561  0.87523564  0.45706029     0.86900
O416        O  0.09064759  0.84288596  0.33003779    -0.76200
O417        O  0.13338055  0.94969416  0.39603246    -0.89000
O418        O  0.17360407  0.84416479  0.47564617    -0.81800
C419        C  0.20789000  0.93966957  0.46844087     0.92000
C420        C  0.18190793  0.98641754  0.32720659     0.91900
Mg421      Mg  0.10962896  0.81587277  0.42492716     1.58000
O422        O  0.05921700  0.79193693  0.44780322    -0.81700
O423        O  0.15762557  0.83377095  0.40039288    -0.76000
O424        O  0.20566300  0.95075219  0.43854084    -0.81800
O425        O  0.07730578  0.98263163  0.31159291    -0.83500
O426        O  0.01667873  0.82768276  0.34464622    -0.81800
C427        C  0.17483767  0.85989140  0.39898951     0.86300
O428        O  0.08253874  0.83329587  0.38275551    -0.89000
O429        O  0.10238725  0.86399680  0.44611977    -0.89100
O430        O  0.04995809  0.87556198  0.44020880    -0.76100
Mg431      Mg  0.18140062  0.93027154  0.38689727     1.58000
O432        O  0.19012468  0.91630592  0.47850483    -0.83500
H433        H  0.13702158  0.89394818  0.29742352    -0.07200
O434        O  0.04820586  0.89804149  0.36516793    -0.88800
H435        H  0.01649464  0.92474704  0.39154674    -0.07100
H436        H  0.10630137  0.80172070  0.35352400    -0.07200
C437        C  0.03957528  0.92412448  0.37845144     0.86300
C438        C  0.13657265  0.90617564  0.32104159     0.86900
C439        C  0.09338816  0.82485768  0.35553922     0.86900
H440        H  0.07621746  0.88630789  0.48124657    -0.07200
O441        O  0.12233266  0.93989132  0.44816707    -0.76300
Mg442      Mg  0.03457415  0.85361147  0.39041106     1.58000
H443        H  0.11007858  0.98216895  0.42465355    -0.07200
C444        C  0.05277978  0.97374089  0.29484928     0.91900
O445        O  0.02219455  0.85680728  0.29872348    -0.83500
C446        C  0.01249886  0.83071541  0.31397577     0.92000
O447        O  0.19697455  0.97538620  0.35291848    -0.83500
Mg448      Mg  0.14606966  0.89006482  0.46052149     1.58200
O449        O  0.04178082  0.94384732  0.29573601    -0.81800
O450        O  0.14598369  0.79775350  0.46723649    -0.83500
C451        C  0.98434833  0.74262441  0.50194578     0.79500
N452        N  0.00842709  0.75901464  0.48568539    -0.78800
C453        C  0.00415977  0.76822486  0.45408737     0.81900
N454        N  0.97507352  0.76049060  0.43860332    -0.78800
C455        C  0.95063526  0.74392068  0.45504003     0.82000
N456        N  0.95570225  0.73535527  0.48663737    -0.80500
C457        C  0.25645450  0.00134028  0.51495249     0.79500
N458        N  0.23966445  0.98603457  0.49046855    -0.78800
C459        C  0.22997555  0.95449202  0.49383205     0.81900
N460        N  0.23765170  0.93802024  0.52248589    -0.78800
C461        C  0.25456263  0.95346398  0.54740811     0.82000
N462        N  0.26359026  0.98507569  0.54320202    -0.80500
C463        C  0.23287865  0.74717246  0.49070150     0.79500
N464        N  0.20472613  0.76333281  0.48317090    -0.78800
C465        C  0.20092089  0.79536379  0.49093370     0.81900
N466        N  0.22605225  0.81122243  0.50709230    -0.78800
C467        C  0.25464168  0.79488966  0.51502113     0.82000
N468        N  0.25766877  0.76296005  0.50649903    -0.80500
C469        C  0.00248993  0.76815566  0.24853408     0.79500
N470        N  0.98652665  0.74333883  0.26420366    -0.78800
C471        C  0.97672000  0.74685438  0.29572545     0.81900
N472        N  0.98359906  0.77594172  0.31180764    -0.78800
C473        C  0.99966108  0.80121539  0.29600803     0.82000
N474        N  0.00874714  0.79686375  0.26439224    -0.80500
C475        C  0.24467963  0.00048090  0.76772044     0.79500
N476        N  0.26096378  0.00842542  0.79569068    -0.78800
C477        C  0.29316701  0.00185323  0.79897465     0.81900
N478        N  0.30918384  0.98647147  0.77346534    -0.78800
C479        C  0.29276546  0.97812093  0.74499470     0.82000
N480        N  0.26053430  0.98548176  0.74242607    -0.80500
C481        C  0.77728167  0.24120581  0.99153516     0.79500
N482        N  0.74872048  0.25288352  0.97854848    -0.78800
C483        C  0.74380957  0.28565652  0.97516383     0.81900
N484        N  0.76792653  0.30674786  0.98571075    -0.78800
C485        C  0.79687277  0.29515456  0.99867026     0.82000
N486        N  0.80113936  0.26236035  0.00140121    -0.80500
C487        C  0.50200853  0.72790769  0.75343655     0.79500
N488        N  0.48556515  0.75264831  0.73804212    -0.78800
C489        C  0.47611755  0.74935057  0.70629606     0.81900
N490        N  0.48354297  0.72061370  0.68993635    -0.78800
C491        C  0.49980733  0.69544660  0.70553903     0.82000
N492        N  0.50880274  0.69958140  0.73718091    -0.80500
C493        C  0.48405103  0.75067590  0.49706924     0.79500
N494        N  0.50845184  0.73560075  0.51407119    -0.78800
C495        C  0.50461147  0.72812289  0.54613879     0.81900
N496        N  0.47561766  0.73646336  0.56143653    -0.78800
C497        C  0.45084689  0.75203342  0.54447658     0.82000
N498        N  0.45535982  0.75865805  0.51216579    -0.80500
C499        C  0.73424129  0.75104473  0.50920299     0.79500
N500        N  0.75883880  0.73443357  0.49404853    -0.78800
C501        C  0.75567465  0.70228743  0.48687625     0.81900
N502        N  0.72709650  0.68644422  0.49553001    -0.78800
C503        C  0.70210930  0.70299885  0.51116349     0.82000
N504        N  0.70594941  0.73542203  0.51754091    -0.80500
C505        C  0.49315726  0.47095273  0.74870155     0.79500
N506        N  0.50674763  0.49796828  0.73417133    -0.78800
C507        C  0.53931672  0.49860751  0.72783265     0.81900
N508        N  0.55797158  0.47208487  0.73659894    -0.78800
C509        C  0.54450640  0.44499677  0.75120037     0.82000
N510        N  0.51201841  0.44470904  0.75716090    -0.80500
C511        C  0.75343718  0.49431733  0.73194101     0.79500
N512        N  0.73496997  0.50304513  0.70572160    -0.78800
C513        C  0.70231191  0.49795759  0.70532330     0.81900
N514        N  0.68784621  0.48325071  0.73240424    -0.78800
C515        C  0.70672908  0.47377794  0.75914131     0.82000
N516        N  0.73933408  0.47980015  0.75843346    -0.80500
C517        C  0.75879403  0.49599579  0.49041057     0.79500
N518        N  0.74217387  0.51178567  0.51471141    -0.78800
C519        C  0.73212729  0.54313724  0.51064143     0.81900
N520        N  0.73912598  0.55885817  0.48144053    -0.78800
C521        C  0.75574259  0.54298638  0.45662864     0.82000
N522        N  0.76532902  0.51157580  0.46155485    -0.80500
C523        C  0.74280551  0.50532483  0.22838261     0.79500
N524        N  0.75707019  0.51855634  0.25570696    -0.78800
C525        C  0.78982941  0.52329751  0.25663093     0.81900
N526        N  0.80808128  0.51460656  0.22981147    -0.78800
C527        C  0.79404033  0.50130226  0.20231497     0.82000
N528        N  0.76130603  0.49666243  0.20189247    -0.80500
O529        O  0.11957750  0.31480857  0.60321471    -0.89100
C530        C  0.13151386  0.40202970  0.55687858     0.86900
Mg531      Mg  0.07652647  0.30605392  0.63196050     1.58100
O532        O  0.18115809  0.39429121  0.62715474    -0.88800
O533        O  0.17289666  0.31875641  0.61051475    -0.76100
C534        C  0.05822782  0.44622675  0.72226848     0.92000
O535        O  0.06555601  0.36129005  0.57186233    -0.76000
O536        O  0.04068202  0.42117463  0.71394797    -0.83500
Mg537      Mg  0.11116817  0.33186489  0.55423782     1.58000
C538        C  0.18676287  0.46811787  0.69904303     0.91900
O539        O  0.15914590  0.30179889  0.53307912    -0.81700
H540        H  0.21363918  0.36796503  0.65297260    -0.07100
C541        C  0.09678583  0.44502106  0.63793902     0.86900
O542        O  0.10449941  0.31954917  0.67933434    -0.76200
O543        O  0.14104595  0.37465796  0.56641614    -0.89000
O544        O  0.19596218  0.46415113  0.66875748    -0.81800
C545        C  0.21731396  0.43877090  0.55528439     0.92000
C546        C  0.18915833  0.31089577  0.52793400     0.91900
Mg547      Mg  0.12986414  0.41421685  0.69641577     1.58000
O548        O  0.08863947  0.44700115  0.71597242    -0.81700
O549        O  0.17561489  0.38524017  0.68020322    -0.76000
O550        O  0.20955811  0.40867789  0.55303998    -0.81800
O551        O  0.07215204  0.28989291  0.54173243    -0.83500
O552        O  0.02964830  0.33516291  0.69844800    -0.81800
C553        C  0.19131982  0.38232922  0.65328357     0.86300
O554        O  0.09956479  0.37303457  0.68525072    -0.89000
O555        O  0.12320473  0.43377002  0.64815211    -0.89100
O556        O  0.06944494  0.43039018  0.64255159    -0.76100
Mg557      Mg  0.18953875  0.36589709  0.58364888     1.58000
O558        O  0.21013564  0.45541749  0.58135009    -0.83500
H559        H  0.14547476  0.28044612  0.62699219    -0.07200
O560        O  0.06080816  0.35557790  0.62558378    -0.88800
H561        H  0.02873593  0.38152879  0.59883970    -0.07100
H562        H  0.12247210  0.34488090  0.71842933    -0.07200
C563        C  0.05066241  0.36656762  0.59898703     0.86300
C564        C  0.14578564  0.30350630  0.61375425     0.86900
C565        C  0.10905065  0.34596762  0.69551055     0.86900
H566        H  0.09700553  0.46772483  0.62409737    -0.07200
O567        O  0.13779119  0.42845339  0.57266762    -0.76300
Mg568      Mg  0.05088568  0.38388480  0.66997553     1.58000
H569        H  0.11700889  0.40351740  0.53465682    -0.07200
C570        C  0.04646816  0.28218183  0.55860752     0.91900
O571        O  0.03264835  0.29545521  0.66063769    -0.83500
C572        C  0.02296120  0.30579779  0.68817402     0.92000
O573        O  0.20054211  0.33710764  0.53985315    -0.83500
Mg574      Mg  0.16682054  0.44428729  0.61936110     1.58200
O575        O  0.04500211  0.28839931  0.58908488    -0.81800
O576        O  0.16096548  0.45521952  0.71012841    -0.83500
O577        O  0.61724814  0.14615013  0.43257143    -0.89100
C578        C  0.61007959  0.19304152  0.34575796     0.86900
Mg579      Mg  0.66003130  0.11754762  0.44423949     1.58100
O580        O  0.56141850  0.12214319  0.35053984    -0.88800
O581        O  0.56419875  0.13835346  0.42652124    -0.76100
C582        C  0.68809279  0.02903075  0.30361765     0.92000
O583        O  0.67326865  0.17794475  0.38947625    -0.76000
O584        O  0.70486107  0.03772413  0.32919903    -0.83500
Mg585      Mg  0.62585388  0.19556858  0.41599912     1.58000
C586        C  0.55907836  0.05194155  0.27729205     0.91900
O587        O  0.57570603  0.21702999  0.44249380    -0.81700
H588        H  0.52827927  0.09573271  0.37539704    -0.07100
C589        C  0.64831901  0.11240407  0.30448367     0.86900
O590        O  0.63405031  0.06971626  0.42889532    -0.76200
O591        O  0.59855292  0.18319060  0.37224381    -0.89000
O592        O  0.55013707  0.08223058  0.28081441    -0.81800
C593        C  0.52841807  0.19416438  0.30406797     0.92000
C594        C  0.54573114  0.22137334  0.43259237     0.91900
Mg595      Mg  0.61455930  0.05343460  0.33312934     1.58000
O596        O  0.65751359  0.03449931  0.30211778    -0.81700
O597        O  0.56760363  0.06920915  0.36016000    -0.76000
O598        O  0.53299370  0.19457459  0.33481768    -0.81800
O599        O  0.66270175  0.20915808  0.45937299    -0.83500
O600        O  0.71453654  0.05423131  0.41699634    -0.81800
C601        C  0.55123725  0.09581420  0.36207305     0.86300
O602        O  0.64338367  0.06374539  0.37591711    -0.89000
O603        O  0.62156747  0.10195154  0.31456430    -0.89100
O604        O  0.67496869  0.10806970  0.32033060    -0.76100
Mg605      Mg  0.54989169  0.16482437  0.37846096     1.58000
O606        O  0.53702803  0.16908008  0.28677314    -0.83500
H607        H  0.59016534  0.12244905  0.46607870    -0.07200
O608        O  0.67940515  0.12436538  0.39577791    -0.88800
H609        H  0.71198688  0.15206204  0.37155444    -0.07100
H610        H  0.61953044  0.02994055  0.40246725    -0.07200
C611        C  0.68927489  0.15126811  0.38527230     0.86300
C612        C  0.59068513  0.13548499  0.44290000     0.86900
C613        C  0.63228328  0.05325608  0.40230190     0.86900
H614        H  0.64897418  0.12626898  0.28179608    -0.07200
O615        O  0.60647471  0.17722893  0.31888960    -0.76300
Mg616      Mg  0.69224289  0.08093311  0.36733301     1.58000
H617        H  0.62434629  0.21545737  0.34558290    -0.07200
C618        C  0.68805964  0.19220772  0.46781097     0.91900
O619        O  0.70315149  0.08801147  0.45896057    -0.83500
C620        C  0.71803347  0.06329931  0.44742611     0.92000
O621        O  0.53509510  0.20824643  0.40663228    -0.83500
Mg622      Mg  0.57873898  0.13070702  0.30142418     1.58200
O623        O  0.68933182  0.16153645  0.46239558    -0.81800
O624        O  0.58461097  0.04058328  0.29063199    -0.83500
C625        C  0.49322643  0.24502976  0.50283822     0.79500
N626        N  0.51996270  0.23580506  0.48509472    -0.78800
C627        C  0.52001415  0.23875817  0.45198620     0.81900
N628        N  0.49235535  0.25079171  0.43667611    -0.78800
C629        C  0.46542040  0.26040973  0.45455732     0.82000
N630        N  0.46629193  0.25728796  0.48752324    -0.80500
O631        O  0.36547473  0.31155126  0.39350223    -0.89100
C632        C  0.35521246  0.39665043  0.44329698     0.86900
Mg633      Mg  0.40888232  0.30150574  0.36514343     1.58100
O634        O  0.30852051  0.39336990  0.37058803    -0.88800
O635        O  0.31261718  0.31725934  0.38429671    -0.76100
C636        C  0.43651632  0.44408638  0.28006351     0.92000
O637        O  0.42024438  0.35476076  0.42746006    -0.76000
O638        O  0.45323566  0.41856537  0.28898459    -0.83500
Mg639      Mg  0.37325746  0.32685115  0.44353990     1.58000
C640        C  0.30851911  0.46929456  0.30268880     0.91900
O641        O  0.32399322  0.29943037  0.46506002    -0.81700
H642        H  0.27684191  0.36842602  0.34251612    -0.07100
C643        C  0.39533678  0.44103714  0.36440411     0.86900
O644        O  0.38348942  0.31769319  0.31744796    -0.76200
O645        O  0.34497285  0.37025684  0.43203524    -0.89000
O646        O  0.29889270  0.46517482  0.33269691    -0.81800
C647        C  0.27175419  0.43660396  0.44262424     0.92000
C648        C  0.29377942  0.30883184  0.46829913     0.91900
Mg649      Mg  0.36355606  0.41324458  0.30390950     1.58000
O650        O  0.40606967  0.44594272  0.28614484    -0.81700
O651        O  0.31677435  0.38492227  0.31772728    -0.76000
O652        O  0.27765949  0.40607600  0.44441318    -0.81800
O653        O  0.41034015  0.28346475  0.45561826    -0.83500
O654        O  0.46528580  0.33184025  0.30508402    -0.81800
C655        C  0.29950065  0.38220413  0.34367764     0.86300
O656        O  0.39272848  0.37080695  0.31353272    -0.89000
O657        O  0.36901470  0.43065181  0.35325408    -0.89100
O658        O  0.42238284  0.42598204  0.35985194    -0.76100
Mg659      Mg  0.29685270  0.36388634  0.41225457     1.58000
O660        O  0.28082518  0.45341893  0.41730716    -0.83500
H661        H  0.33948986  0.27852215  0.36799162    -0.07200
O662        O  0.42764275  0.35008657  0.37392333    -0.88800
H663        H  0.45910561  0.37420037  0.40296577    -0.07100
H664        H  0.36997707  0.34533751  0.27816559    -0.07200
C665        C  0.43672472  0.36002728  0.40129730     0.86300
C666        C  0.33934207  0.30125018  0.38180001     0.86900
C667        C  0.38212243  0.34475880  0.30180813     0.86900
H668        H  0.39528188  0.46330647  0.37893978    -0.07200
O669        O  0.35127087  0.42386614  0.42825852    -0.76300
Mg670      Mg  0.44095083  0.37999902  0.33180729     1.58000
H671        H  0.36852101  0.39649301  0.46630687    -0.07200
C672        C  0.43607541  0.27583737  0.43884140     0.91900
O673        O  0.45242953  0.28810500  0.33589946    -0.83500
C674        C  0.46868769  0.30109537  0.31287177     0.92000
O675        O  0.28260818  0.33350725  0.45337790    -0.83500
Mg676      Mg  0.32505261  0.44207505  0.38114051     1.58200
O677        O  0.43804947  0.28251028  0.40850561    -0.81800
O678        O  0.33335188  0.45494008  0.29121005    -0.83500
C679        C  0.50223518  0.49496665  0.24294183     0.79500
N680        N  0.48544165  0.47025037  0.25752564    -0.78800
C681        C  0.45288729  0.47257578  0.26287884     0.81900
N682        N  0.43675460  0.50092410  0.25294715    -0.78800
C683        C  0.45403318  0.52657177  0.23857918     0.82000
N684        N  0.48659462  0.52291147  0.23385186    -0.80500
C685        C  0.50891246  0.73063859  0.99529116     0.79500
N686        N  0.53272094  0.74611191  0.01289713    -0.78800
C687        C  0.52765219  0.75401352  0.04476851     0.81900
N688        N  0.49808737  0.74604750  0.05908197    -0.78800
C689        C  0.47384125  0.73061374  0.04148660     0.82000
N690        N  0.47964105  0.72318866  0.00960886    -0.80500
O691        O  0.37117968  0.68645673  0.10474407    -0.89100
C692        C  0.35919425  0.60018939  0.05803610     0.86900
Mg693      Mg  0.41443741  0.69655631  0.13252029     1.58100
O694        O  0.31188843  0.60619495  0.13006028    -0.88800
O695        O  0.31830733  0.68188633  0.11465500    -0.76100
C696        C  0.43815031  0.55653651  0.22353558     0.92000
O697        O  0.42462507  0.64028268  0.07293778    -0.76000
O698        O  0.45542557  0.58169178  0.21457235    -0.83500
Mg699      Mg  0.37868715  0.66929875  0.05544522     1.58000
C700        C  0.30979737  0.53188266  0.19987980     0.91900
O701        O  0.33043453  0.69875165  0.03449135    -0.81700
H702        H  0.27948608  0.63132667  0.15712241    -0.07100
C703        C  0.39807555  0.55736365  0.13921499     0.86900
O704        O  0.38802047  0.68270331  0.18071801    -0.76200
O705        O  0.34923183  0.62708581  0.06836543    -0.89000
O706        O  0.30025044  0.53617688  0.16985763    -0.81800
C707        C  0.27502823  0.56218141  0.05845687     0.92000
C708        C  0.29997354  0.69025578  0.03147343     0.91900
Mg709      Mg  0.36555313  0.58722231  0.19810401     1.58000
O710        O  0.40770294  0.55535054  0.21740730    -0.81700
O711        O  0.31887045  0.61512946  0.18299430    -0.76000
O712        O  0.28101624  0.59271514  0.05680137    -0.81800
O713        O  0.41749182  0.71044521  0.04095185    -0.83500
O714        O  0.46774182  0.66893807  0.19604856    -0.81800
C715        C  0.30220981  0.61762028  0.15662003     0.86300
O716        O  0.39524540  0.62948145  0.18734794    -0.89000
O717        O  0.37163004  0.56849737  0.14934732    -0.89100
O718        O  0.42524030  0.57225510  0.14382027    -0.76100
Mg719      Mg  0.30129434  0.63518315  0.08773226     1.58000
O720        O  0.28392848  0.54527539  0.08381486    -0.83500
H721        H  0.34602445  0.72050727  0.12972520    -0.07200
O722        O  0.43181721  0.64725188  0.12634218    -0.88800
H723        H  0.46250633  0.62055409  0.09874422    -0.07100
H724        H  0.37217275  0.65731336  0.22068911    -0.07200
C725        C  0.44068168  0.63564381  0.09952394     0.86300
C726        C  0.34532881  0.69748542  0.11643059     0.86900
C727        C  0.38503371  0.65637516  0.19744205     0.86900
H728        H  0.39806220  0.53451685  0.12560627    -0.07200
O729        O  0.35484184  0.57349144  0.07387256    -0.76300
Mg730      Mg  0.44390014  0.61925746  0.17034942     1.58000
H731        H  0.37275391  0.59946844  0.03518554    -0.07200
C732        C  0.44322619  0.71813641  0.05763246     0.91900
O733        O  0.45799676  0.71010746  0.16090183    -0.83500
C734        C  0.47232802  0.69891941  0.18599600     0.92000
O735        O  0.28833623  0.66535082  0.04574084    -0.83500
Mg736      Mg  0.32772643  0.55697393  0.12098173     1.58200
O737        O  0.44442209  0.71308582  0.08835369    -0.81800
O738        O  0.33541372  0.54505052  0.21116647    -0.83500
C739        C  0.24433837  0.50385999  0.49718704     0.79500
N740        N  0.23307252  0.48807403  0.52434073    -0.78800
C741        C  0.23303597  0.45481347  0.52587341     0.81900
N742        N  0.24459915  0.43720108  0.49912154    -0.78800
C743        C  0.25604332  0.45338184  0.47150310     0.82000
N744        N  0.25560836  0.48647624  0.47119556    -0.80500
O745        O  0.62206051  0.85242239  0.06237687    -0.89100
C746        C  0.61213007  0.80709461  0.14958735     0.86900
Mg747      Mg  0.66494092  0.88160355  0.05199286     1.58100
O748        O  0.56385651  0.87838004  0.14220993    -0.88800
O749        O  0.56890397  0.86063333  0.06647227    -0.76100
C750        C  0.68892371  0.97367731  0.19102617     0.92000
O751        O  0.67699995  0.82215158  0.10789524    -0.76000
O752        O  0.70610334  0.96423343  0.16602457    -0.83500
Mg753      Mg  0.63072360  0.80335107  0.08027181     1.58000
C754        C  0.56032975  0.94923574  0.21562681     0.91900
O755        O  0.58202098  0.77897288  0.05378058    -0.81700
H756        H  0.53180312  0.90445984  0.11563853    -0.07100
C757        C  0.64944983  0.88911655  0.19126782     0.86900
O758        O  0.63808018  0.92925092  0.06585281    -0.76200
O759        O  0.60161619  0.81649815  0.12255768    -0.89000
O760        O  0.55198356  0.91875369  0.21262572    -0.81800
C761        C  0.52919468  0.80771629  0.18882565     0.92000
C762        C  0.55156573  0.77542898  0.06245143     0.91900
Mg763      Mg  0.61656738  0.94737305  0.16032971     1.58000
O764        O  0.65852830  0.96715038  0.19275619    -0.81700
O765        O  0.57063231  0.93111186  0.13187673    -0.76000
O766        O  0.53478069  0.80575800  0.15825878    -0.81800
O767        O  0.66877146  0.78980769  0.03787870    -0.83500
O768        O  0.71924308  0.94505952  0.08069424    -0.81800
C769        C  0.55423611  0.90453801  0.12983527     0.86300
O770        O  0.64665204  0.93648177  0.11879939    -0.89000
O771        O  0.62310396  0.89906809  0.17979421    -0.89100
O772        O  0.67665655  0.89336392  0.17643225    -0.76100
Mg773      Mg  0.55313554  0.83508894  0.11446804     1.58000
O774        O  0.53736091  0.83348883  0.20526159    -0.83500
H775        H  0.59619906  0.87522652  0.02732817    -0.07200
O776        O  0.68308265  0.87563874  0.10123097    -0.88800
H777        H  0.71491808  0.84841727  0.12692002    -0.07100
H778        H  0.62310417  0.96957376  0.09112368    -0.07200
C779        C  0.69270327  0.84893757  0.11239402     0.86300
C780        C  0.59589129  0.86282579  0.05085730     0.86900
C781        C  0.63597520  0.94634118  0.09200161     0.86900
H782        H  0.64927144  0.87582735  0.21430632    -0.07200
O783        O  0.60778107  0.82352413  0.17593524    -0.76300
Mg784      Mg  0.69510781  0.91955453  0.12940320     1.58000
H785        H  0.62616166  0.78456044  0.15072221    -0.07200
C786        C  0.69405097  0.80695961  0.02955030     0.91900
O787        O  0.70791396  0.91203273  0.03815304    -0.83500
C788        C  0.72316835  0.93624818  0.05032255     0.92000
O789        O  0.53933470  0.79153700  0.08594708    -0.83500
Mg790      Mg  0.58003466  0.87048560  0.19190044     1.58200
O791        O  0.69514492  0.83765708  0.03501186    -0.81800
O792        O  0.58493898  0.96111206  0.20108782    -0.83500
C793        C  0.75343808  0.74459549  0.99810725     0.79500
N794        N  0.77917959  0.76365734  0.98888646    -0.78800
C795        C  0.77790149  0.79659484  0.99168959     0.81900
N796        N  0.74980656  0.81069746  0.00399428    -0.78800
C797        C  0.72382148  0.79171078  0.01419063     0.82000
N798        N  0.72588423  0.75862585  0.01085059    -0.80500
O799        O  0.86561378  0.18645292  0.60292441    -0.89100
C800        C  0.85926207  0.09949605  0.55575817     0.86900
Mg801      Mg  0.90759487  0.19821856  0.63257817     1.58100
O802        O  0.81014350  0.10413041  0.62673953    -0.88800
O803        O  0.81260494  0.18018469  0.61041820    -0.76100
C804        C  0.93544667  0.05896584  0.72237224     0.92000
O805        O  0.92280297  0.14401038  0.57259311    -0.76000
O806        O  0.95172784  0.08488820  0.71402697    -0.83500
Mg807      Mg  0.87542326  0.16986164  0.55401385     1.58000
C808        C  0.80906695  0.02978734  0.69652779     0.91900
O809        O  0.82600122  0.19464056  0.53020162    -0.81700
H810        H  0.77620013  0.12830309  0.65275000    -0.07100
C811        C  0.89747207  0.05864782  0.63728206     0.86900
O812        O  0.88020222  0.18257294  0.67935639    -0.76200
O813        O  0.84791611  0.12596954  0.56573189    -0.89000
O814        O  0.80033407  0.03308542  0.66616166    -0.81800
C815        C  0.77659934  0.05816555  0.55539363     0.92000
C816        C  0.79596012  0.18506387  0.52580142     0.91900
Mg817      Mg  0.86251965  0.08705557  0.69576548     1.58000
O818        O  0.90527331  0.05629984  0.71543091    -0.81700
O819        O  0.81538262  0.11354932  0.67975903    -0.76000
O820        O  0.78172342  0.08876937  0.55394252    -0.81800
O821        O  0.91075774  0.21494533  0.54254383    -0.83500
O822        O  0.96066536  0.17093686  0.69774235    -0.81800
C823        C  0.79936384  0.11534982  0.65294866     0.86300
O824        O  0.89065489  0.12994775  0.68583708    -0.89000
O825        O  0.87046231  0.06853456  0.64721060    -0.89100
O826        O  0.92391969  0.07461250  0.64235408    -0.76100
Mg827      Mg  0.79887486  0.13216976  0.58392477     1.58000
O828        O  0.78549859  0.04133211  0.58069731    -0.83500
H829        H  0.83818891  0.22006523  0.62602396    -0.07200
O830        O  0.92781958  0.15009317  0.62626493    -0.88800
H831        H  0.96120544  0.12634961  0.59912628    -0.07100
H832        H  0.86520581  0.15600597  0.71883423    -0.07200
C833        C  0.93833258  0.13980654  0.59954026     0.86300
C834        C  0.83892522  0.19677493  0.61321010     0.86900
C835        C  0.87866829  0.15607260  0.69591337     0.86900
H836        H  0.89856410  0.03602838  0.62334068    -0.07200
O837        O  0.85546753  0.07266524  0.57152471    -0.76300
Mg838      Mg  0.93987717  0.12179343  0.67005896     1.58000
H839        H  0.87345848  0.09927889  0.53328922    -0.07200
C840        C  0.93589331  0.22469930  0.55919724     0.91900
O841        O  0.94881904  0.21271181  0.66397986    -0.83500
C842        C  0.96346631  0.20138701  0.68891862     0.92000
O843        O  0.78428758  0.16051793  0.54062787    -0.83500
Mg844      Mg  0.82790935  0.05521607  0.61813528     1.58200
O845        O  0.93862827  0.21800234  0.58958509    -0.81800
O846        O  0.83334035  0.04471035  0.70846372    -0.83500
C847        C  0.74178815  0.98949224  0.74242484     0.79500
N848        N  0.75869229  0.00421297  0.71763373    -0.78800
C849        C  0.79100652  0.00999592  0.72088972     0.81900
N850        N  0.80625290  0.00119421  0.74940771    -0.78800
C851        C  0.78966555  0.98655430  0.77458974     0.82000
N852        N  0.75725982  0.98036008  0.77077678    -0.80500
O853        O  0.87185630  0.81624118  0.89645046    -0.89100
C854        C  0.86359780  0.90391207  0.94161838     0.86900
Mg855      Mg  0.91392218  0.80571883  0.86676448     1.58100
O856        O  0.81401509  0.89659563  0.87133262    -0.88800
O857        O  0.81860899  0.82080135  0.88930539    -0.76100
C858        C  0.93764572  0.94585372  0.77611706     0.92000
O859        O  0.92800987  0.86087113  0.92606640    -0.76000
O860        O  0.95482969  0.92047703  0.78440863    -0.83500
Mg861      Mg  0.88150330  0.83378441  0.94500062     1.58000
C862        C  0.80907948  0.96958522  0.80017605     0.91900
O863        O  0.83248448  0.80729135  0.96836916    -0.81700
H864        H  0.78060718  0.87124299  0.84571299    -0.07100
C865        C  0.89935152  0.94492455  0.86012263     0.86900
O866        O  0.88575136  0.82039187  0.81999961    -0.76200
O867        O  0.85280647  0.87687139  0.93247728    -0.89000
O868        O  0.80007936  0.96565528  0.83040566    -0.81800
C869        C  0.78075345  0.94337548  0.94253852     0.92000
C870        C  0.80236135  0.81647521  0.97318597     0.91900
Mg871      Mg  0.86527878  0.91531263  0.80186044     1.58000
O872        O  0.90724817  0.94707400  0.78240106    -0.81700
O873        O  0.81887277  0.88751471  0.81820863    -0.76000
O874        O  0.78639474  0.91285913  0.94374043    -0.81800
O875        O  0.91911318  0.79032054  0.95727911    -0.83500
O876        O  0.96525999  0.83369557  0.80057586    -0.81800
C877        C  0.80331915  0.88497216  0.84525583     0.86300
O878        O  0.89459522  0.87322845  0.81228457    -0.89000
O879        O  0.87270593  0.93418216  0.85004813    -0.89100
O880        O  0.92629076  0.92965185  0.85553184    -0.76100
Mg881      Mg  0.80386937  0.86910358  0.91487115     1.58000
O882        O  0.78816331  0.96028577  0.91687252    -0.83500
H883        H  0.84522455  0.78135925  0.87428513    -0.07200
O884        O  0.93242589  0.85453917  0.87237619    -0.88800
H885        H  0.96558417  0.87931149  0.89887596    -0.07100
H886        H  0.86932121  0.84576581  0.78030400    -0.07200
C887        C  0.94305425  0.86527742  0.89887782     0.86300
C888        C  0.84539171  0.80493203  0.88659373     0.86900
C889        C  0.88316059  0.84654958  0.80298541     0.86900
H890        H  0.89966874  0.96768914  0.87386622    -0.07200
O891        O  0.85869806  0.93034724  0.92541212    -0.76300
Mg892      Mg  0.94362041  0.88279421  0.82818677     1.58000
H893        H  0.87822523  0.90501767  0.96378128    -0.07200
C894        C  0.94434776  0.78122404  0.94032850     0.91900
O895        O  0.95551402  0.79262474  0.83585855    -0.83500
C896        C  0.96918005  0.80361533  0.81028333     0.92000
O897        O  0.79051719  0.84153859  0.95935432    -0.83500
Mg898      Mg  0.82987793  0.94636663  0.87887064     1.58200
O899        O  0.94589984  0.78706495  0.90967764    -0.81800
O900        O  0.83510677  0.95719021  0.78902469    -0.83500
O901        O  0.12736730  0.68716567  0.89631218    -0.89100
C902        C  0.13542123  0.60061603  0.94401812     0.86900
Mg903      Mg  0.08527210  0.69772754  0.86743488     1.58100
O904        O  0.18485177  0.60441225  0.87319735    -0.88800
O905        O  0.18010892  0.68043660  0.88722074    -0.76100
C906        C  0.06081222  0.55835647  0.77784390     0.92000
O907        O  0.07088576  0.64368619  0.92804504    -0.76000
O908        O  0.04447432  0.58413342  0.78642244    -0.83500
Mg909      Mg  0.11771264  0.67102591  0.94530136     1.58000
C910        C  0.18714668  0.52907981  0.80337757     0.91900
O911        O  0.16624441  0.69806158  0.96725628    -0.81700
H912        H  0.21942964  0.62786160  0.84737818    -0.07100
C913        C  0.09860591  0.55756876  0.86334476     0.86900
O914        O  0.11284689  0.68238336  0.82050029    -0.76200
O915        O  0.14599975  0.62729357  0.93372480    -0.89000
O916        O  0.19591004  0.53246464  0.83385773    -0.81800
C917        C  0.22005842  0.56165370  0.94586874     0.92000
C918        C  0.19638978  0.68885309  0.97093690     0.91900
Mg919      Mg  0.13333180  0.58645277  0.80465788     1.58000
O920        O  0.09088862  0.55548749  0.78501894    -0.81700
O921        O  0.18039871  0.61316308  0.82011940    -0.76000
O922        O  0.21316238  0.59191888  0.94774583    -0.81800
O923        O  0.08103922  0.71521213  0.95653461    -0.83500
O924        O  0.03453589  0.66958791  0.80323043    -0.81800
C925        C  0.19614110  0.61513611  0.84703870     0.86300
O926        O  0.10478602  0.62922531  0.81521172    -0.89000
O927        O  0.12557752  0.56737081  0.85317113    -0.89100
O928        O  0.07210353  0.57351487  0.85837949    -0.76100
Mg929      Mg  0.19474448  0.63376750  0.91533048     1.58000
O930        O  0.21179116  0.54462259  0.92034884    -0.83500
H931        H  0.15415238  0.71991073  0.87130921    -0.07200
O932        O  0.06669504  0.64905514  0.87435289    -0.88800
H933        H  0.03315797  0.62512949  0.90115438    -0.07100
H934        H  0.12925608  0.65560015  0.78170687    -0.07200
C935        C  0.05583408  0.63892327  0.90096484     0.86300
C936        C  0.15377961  0.69707010  0.88492182     0.86900
C937        C  0.11576675  0.65558073  0.80461152     0.86900
H938        H  0.09759383  0.53502503  0.87741159    -0.07200
O939        O  0.14038741  0.57362192  0.92880637    -0.76300
Mg940      Mg  0.05557446  0.62058296  0.83068506     1.58000
H941        H  0.12104796  0.60028918  0.96637320    -0.07200
C942        C  0.05566259  0.72394181  0.93966612     0.91900
O943        O  0.04335296  0.71098927  0.83826022    -0.83500
C944        C  0.03010913  0.69962158  0.81278975     0.92000
O945        O  0.20789006  0.66393222  0.95675007    -0.83500
Mg946      Mg  0.16844958  0.55556942  0.88248142     1.58200
O947        O  0.05361808  0.71716064  0.90938431    -0.81800
O948        O  0.16298441  0.54427126  0.79148200    -0.83500
C949        C  0.99864720  0.74878396  0.74346246     0.79500
N950        N  0.98687502  0.77616996  0.75889523    -0.78800
C951        C  0.98792443  0.77811727  0.79213404     0.81900
N952        N  0.00033412  0.75209525  0.80943265    -0.78800
C953        C  0.01164551  0.72449065  0.79401341     0.82000
N954        N  0.01083391  0.72318652  0.76105450    -0.80500
C955        C  0.99471444  0.50860023  0.74053488     0.79500
N956        N  0.01005282  0.48041082  0.73168933    -0.78800
C957        C  0.04258721  0.47648127  0.73656169     0.81900
N958        N  0.06009642  0.50196673  0.75071303    -0.78800
C959        C  0.04428138  0.53054568  0.76019948     0.82000
N960        N  0.01177036  0.53325307  0.75484649    -0.80500
C961        C  0.25328547  0.48504705  0.75838097     0.79500
N962        N  0.23673218  0.50080994  0.78283919    -0.78800
C963        C  0.20487642  0.50872112  0.77881621     0.81900
N964        N  0.18969456  0.50061015  0.74988305    -0.78800
C965        C  0.20607118  0.48511407  0.72493731     0.82000
N966        N  0.23790267  0.47718503  0.72962673    -0.80500
C967        C  0.75276467  0.99380698  0.49550667     0.79500
N968        N  0.73959981  0.01136257  0.47021304    -0.78800
C969        C  0.73762205  0.04457520  0.47220523     0.81900
N970        N  0.74866266  0.05994378  0.50031302    -0.78800
C971        C  0.76183620  0.04220881  0.52582360     0.82000
N972        N  0.76362127  0.00933005  0.52295197    -0.80500
C973        C  0.98216629  0.27068486  0.49542873     0.79500
N974        N  0.01079523  0.27791775  0.51075333    -0.78800
C975        C  0.01616697  0.26899464  0.54225961     0.81900
N976        N  0.99165903  0.25241472  0.55887310    -0.78800
C977        C  0.96280593  0.24407453  0.54303615     0.82000
N978        N  0.95858732  0.25343511  0.51139181    -0.80500
C979        C  0.00787617  0.24652115  0.75532991     0.79500
N980        N  0.01538490  0.27524895  0.73971536    -0.78800
C981        C  0.00665083  0.27998445  0.70801335     0.81900
N982        N  0.99073616  0.25519838  0.69193875    -0.78800
C983        C  0.98303423  0.22626905  0.70716424     0.82000
N984        N  0.99172099  0.22206969  0.73899217    -0.80500
C985        C  0.50821058  0.74771281  0.25423957     0.79500
N986        N  0.49524517  0.72211197  0.23702376    -0.78800
C987        C  0.49227730  0.72391555  0.20394467     0.81900
N988        N  0.50228053  0.75217629  0.18817553    -0.78800
C989        C  0.51526805  0.77807805  0.20544870     0.82000
N990        N  0.51798699  0.77541533  0.23838479    -0.80500
C991        C  0.75243724  0.01650720  0.24052086     0.79500
N992        N  0.73663719  0.02357406  0.26900176    -0.78800
C993        C  0.70474338  0.01572249  0.27332004     0.81900
N994        N  0.68827689  0.00028345  0.24783910    -0.78800
C995        C  0.70457045  0.99218249  0.21905060     0.82000
N996        N  0.73646843  0.00061567  0.21598413    -0.80500
C997        C  0.24135215  0.75662263  0.01150615     0.79500
N998        N  0.21701838  0.73928131  0.99668012    -0.78800
C999        C  0.22096013  0.70713711  0.99028032     0.81900
N1000       N  0.24976061  0.69226683  0.99883533    -0.78800
C1001       C  0.27461363  0.70927736  0.01361143     0.82000
N1002       N  0.27003735  0.74160009  0.02021096    -0.80500
C1003       C  0.75283567  0.25422176  0.48588540     0.79500
N1004       N  0.77665357  0.23564739  0.49990858    -0.78800
C1005       C  0.77192399  0.20335879  0.50529587     0.81900
N1006       N  0.74257028  0.18938869  0.49613815    -0.78800
C1007       C  0.71826331  0.20789178  0.48181674     0.82000
N1008       N  0.72369476  0.24039715  0.47704775    -0.80500
C1009       C  0.24276098  0.51283782  0.25730174     0.79500
N1010       N  0.25896458  0.49684635  0.28178473    -0.78800
C1011       C  0.29103673  0.48965119  0.27828087     0.81900
N1012       N  0.30676180  0.49863395  0.24997682    -0.78800
C1013       C  0.29061021  0.51426919  0.22508582     0.82000
N1014       N  0.25859441  0.52150021  0.22912688    -0.80500
C1015       C  0.25808047  0.49704649  0.99718629     0.79500
N1016       N  0.26626381  0.51302903  0.02526944    -0.78800
C1017       C  0.26064221  0.54560082  0.02868372     0.81900
N1018       N  0.24632243  0.56243974  0.00279346    -0.78800
C1019       C  0.23733516  0.54590907  0.97441285     0.82000
N1020       N  0.24357042  0.51349563  0.97223493    -0.80500
C1021       C  0.49323280  0.99206580  0.26014713     0.79500
N1022       N  0.50812645  0.02095680  0.26850236    -0.78800
C1023       C  0.53975099  0.02652666  0.25997027     0.81900
N1024       N  0.55638001  0.00241476  0.24370636    -0.78800
C1025       C  0.54178365  0.97339894  0.23537209     0.82000
N1026       N  0.51014778  0.96838134  0.24364733    -0.80500
C1027       C  0.51764658  0.26372293  0.24566361     0.79500
N1028       N  0.50031607  0.28574457  0.26378427    -0.78800
C1029       C  0.49058179  0.27816173  0.29457866     0.81900
N1030       N  0.49843964  0.24779238  0.30724531    -0.78800
C1031       C  0.51559577  0.22519280  0.28897640     0.82000
N1032       N  0.52508795  0.23358086  0.25820862    -0.80500
C1033       C  0.24577837  0.24260591  0.50846598     0.79500
N1034       N  0.21742836  0.25847551  0.51657734    -0.78800
C1035       C  0.21446613  0.29108553  0.51064649     0.81900
N1036       N  0.24026764  0.30720797  0.49638777    -0.78800
C1037       C  0.26863961  0.29132020  0.48800497     0.82000
N1038       N  0.27123517  0.25896008  0.49433597    -0.80500
C1039       C  0.00154053  0.75375620  0.00604849     0.79500
N1040       N  0.97490156  0.76568511  0.98997967    -0.78800
C1041       C  0.97348248  0.76522494  0.95668871     0.81900
N1042       N  0.99988907  0.75249744  0.93939896    -0.78800
C1043       C  0.02704651  0.74051422  0.95595549     0.82000
N1044       N  0.02718707  0.74144577  0.98901159    -0.80500
C1045       C  0.77385580  0.00206606  0.01187265     0.79500
N1046       N  0.75608668  0.98476683  0.03434493    -0.78800
C1047       C  0.74475693  0.95436811  0.02688931     0.81900
N1048       N  0.75148369  0.94139022  0.99641203    -0.78800
C1049       C  0.76871291  0.95896141  0.97343034     0.82000
N1050       N  0.77981655  0.98916055  0.98159059    -0.80500
C1051       C  0.00218921  0.00634301  0.75470733     0.79500
N1052       N  0.98506796  0.03196048  0.74217902    -0.78800
C1053       C  0.95217030  0.03049757  0.73894367     0.81900
N1054       N  0.93605900  0.00222078  0.74886210    -0.78800
C1055       C  0.95351574  0.97588109  0.76145574     0.82000
N1056       N  0.98640931  0.97855970  0.76411506    -0.80500
C1057       C  0.65769854  0.48817591  0.19749289    -0.11600
C1058       C  0.64015859  0.48852314  0.22704950     0.05600
C1059       C  0.65628657  0.49385389  0.25696476    -0.10300
C1060       C  0.68979963  0.49939596  0.25737367    -0.12000
C1061       C  0.70754745  0.49933290  0.22784229    -0.01800
C1062       C  0.69138781  0.49331379  0.19789704    -0.10900
C1063       C  0.60460995  0.48651429  0.22693947     0.05600
H1064       H  0.64273925  0.49471380  0.27989179     0.07500
H1065       H  0.70173062  0.50376898  0.28077841     0.11000
H1066       H  0.70461448  0.49321004  0.17478671     0.11200
H1067       H  0.64525725  0.48431889  0.17425252     0.07500
C1068       C  0.58658066  0.50993787  0.20939283    -0.11600
C1069       C  0.55297160  0.51235657  0.21416775    -0.10900
C1070       C  0.53718221  0.49111409  0.23630169    -0.01800
C1071       C  0.55513579  0.46645359  0.25241088    -0.12000
C1072       C  0.58878635  0.46429717  0.24787035    -0.10400
H1073       H  0.59875227  0.52743451  0.19341090     0.07500
H1074       H  0.53953309  0.53125877  0.20109853     0.11200
H1075       H  0.54344630  0.44964713  0.26943781     0.11000
H1076       H  0.60268115  0.44615978  0.26155730     0.07500
C1077       C  0.75212009  0.40833068  0.51715989    -0.11600
C1078       C  0.77005152  0.39272926  0.49232658     0.05600
C1079       C  0.78847789  0.41116166  0.46994346    -0.10300
C1080       C  0.78661396  0.44529814  0.47061436    -0.12000
C1081       C  0.76649151  0.46103689  0.49386510    -0.01800
C1082       C  0.75054875  0.44237838  0.51812758    -0.10900
C1083       C  0.76643615  0.35749245  0.48774017     0.05600
H1084       H  0.80251873  0.39914440  0.45076423     0.07500
H1085       H  0.79952530  0.45921756  0.45194715     0.11000
H1086       H  0.73509346  0.45386042  0.53650567     0.11200
H1087       H  0.73809517  0.39408861  0.53477084     0.07500
C1088       C  0.79372089  0.33683799  0.48962381    -0.11600
C1089       C  0.78944610  0.30300295  0.48755806    -0.10900
C1090       C  0.75785686  0.28970662  0.48326022    -0.01800
C1091       C  0.73085731  0.31072227  0.47959152    -0.12000
C1092       C  0.73513388  0.34448491  0.48203923    -0.10400
H1093       H  0.81800883  0.34683732  0.49378605     0.07500
H1094       H  0.81072662  0.28727209  0.49018681     0.11200
H1095       H  0.70630010  0.30111279  0.47626101     0.11000
H1096       H  0.71397444  0.36050249  0.48008752     0.07500
C1097       C  0.83814467  0.51277719  0.70095660    -0.11600
C1098       C  0.85596925  0.51249523  0.73034962     0.05600
C1099       C  0.83999982  0.50715171  0.76040815    -0.10300
C1100       C  0.80646631  0.50130849  0.76102228    -0.12000
C1101       C  0.78859898  0.50103268  0.73155904    -0.01800
C1102       C  0.80455933  0.50725570  0.70156856    -0.10900
C1103       C  0.89158890  0.51494804  0.72966933     0.05600
H1104       H  0.85366523  0.50643927  0.78326410     0.07500
H1105       H  0.79461734  0.49684945  0.78445380     0.11000
H1106       H  0.79125203  0.50716525  0.67850320     0.11200
H1107       H  0.85029642  0.51685861  0.67760157     0.07500
C1108       C  0.90958412  0.49383702  0.70927566    -0.11600
C1109       C  0.94346694  0.49235970  0.71215861    -0.10900
C1110       C  0.95956199  0.51222678  0.73526691    -0.01800
C1111       C  0.94163101  0.53470072  0.75431482    -0.12000
C1112       C  0.90772732  0.53590624  0.75166063    -0.10400
H1113       H  0.89730308  0.47736164  0.69232446     0.07500
H1114       H  0.95694205  0.47517967  0.69691684     0.11200
H1115       H  0.95361878  0.55035465  0.77221762     0.11000
H1116       H  0.89399877  0.55243638  0.76739647     0.07500
C1117       C  0.40832006  0.43847694  0.76235611    -0.11600
C1118       C  0.39097444  0.46771152  0.76730593     0.05600
C1119       C  0.40736552  0.49799737  0.76748813    -0.10300
C1120       C  0.44087325  0.49915771  0.76149233    -0.12000
C1121       C  0.45818983  0.46996290  0.75580122    -0.01800
C1122       C  0.44190426  0.43956666  0.75692499    -0.10900
C1123       C  0.35534847  0.46730231  0.76808550     0.05600
H1124       H  0.39397801  0.52077514  0.77083987     0.07500
H1125       H  0.45316126  0.52277685  0.76107162     0.11000
H1126       H  0.45493172  0.41675957  0.75256104     0.11200
H1127       H  0.39571959  0.41501582  0.76193758     0.07500
C1128       C  0.33829206  0.45428435  0.74120202    -0.11600
C1129       C  0.30471482  0.45907139  0.73856466    -0.10900
C1130       C  0.28790196  0.47679690  0.76292888    -0.01800
C1131       C  0.30485068  0.48799177  0.79088879    -0.12000
C1132       C  0.33851979  0.48345006  0.79331927    -0.10400
H1133       H  0.35123512  0.44202317  0.72140351     0.07500
H1134       H  0.29222635  0.44987054  0.71692330     0.11200
H1135       H  0.29244101  0.50144669  0.81022033     0.11000
H1136       H  0.35163681  0.49354283  0.81419471     0.07500
C1137       C  0.71219574  0.84035479  0.50978680    -0.11600
C1138       C  0.74341939  0.85456453  0.50724285     0.05600
C1139       C  0.77151023  0.83484794  0.50913766    -0.10300
C1140       C  0.76841912  0.80104389  0.51193166    -0.12000
C1141       C  0.73720476  0.78657320  0.51281377    -0.01800
C1142       C  0.70907413  0.80643437  0.51276167    -0.10900
C1143       C  0.74693486  0.88994865  0.50247777     0.05600
H1144       H  0.79580526  0.84549156  0.50725605     0.07500
H1145       H  0.79044903  0.78613864  0.51215718     0.11000
H1146       H  0.68475050  0.79572324  0.51330701     0.11200
H1147       H  0.69031441  0.85545344  0.50895094     0.07500
C1148       C  0.72824411  0.90639096  0.47860733    -0.11600
C1149       C  0.73128653  0.94029673  0.47489221    -0.10900
C1150       C  0.75285291  0.95788827  0.49521678    -0.01800
C1151       C  0.77236782  0.94105291  0.51817094    -0.12000
C1152       C  0.76934963  0.90736040  0.52181776    -0.10400
H1153       H  0.71119492  0.89304956  0.46311700     0.07500
H1154       H  0.71593763  0.95281517  0.45711029     0.11200
H1155       H  0.78937880  0.95401956  0.53401557     0.11000
H1156       H  0.78392156  0.89499835  0.54036920     0.07500
C1157       C  0.52405712  0.75906512  0.41464346    -0.11600
C1158       C  0.49696147  0.75532048  0.39381293     0.05600
C1159       C  0.46523175  0.75351202  0.40701376    -0.10300
C1160       C  0.46076144  0.75394356  0.44090485    -0.12000
C1161       C  0.48804915  0.75576930  0.46179784    -0.01800
C1162       C  0.51963799  0.75909820  0.44851390    -0.10900
C1163       C  0.50187470  0.75195406  0.35839362     0.05600
H1164       H  0.44404249  0.75109253  0.39110218     0.07500
H1165       H  0.43620672  0.75122420  0.45072943     0.11000
H1166       H  0.54096979  0.76075072  0.46432904     0.11200
H1167       H  0.54869632  0.76052205  0.40475484     0.07500
C1168       C  0.52183314  0.77432322  0.34155752    -0.11600
C1169       C  0.52512590  0.77199318  0.30763970    -0.10900
C1170       C  0.50854558  0.74718599  0.29022261    -0.01800
C1171       C  0.48985806  0.72385374  0.30738835    -0.12000
C1172       C  0.48644316  0.72632811  0.34129711    -0.10400
H1173       H  0.53400156  0.79416137  0.35451086     0.07500
H1174       H  0.53991406  0.79016763  0.29500833     0.11200
H1175       H  0.47687993  0.70445744  0.29457971     0.11000
H1176       H  0.47146155  0.70847399  0.35417230     0.07500
C1177       C  0.53734059  0.70720693  0.83625272    -0.11600
C1178       C  0.51960462  0.72881293  0.85616286     0.05600
C1179       C  0.49930466  0.75276211  0.84209472    -0.10300
C1180       C  0.49509591  0.75384645  0.80822745    -0.12000
C1181       C  0.51085949  0.73064575  0.78822093    -0.01800
C1182       C  0.53290796  0.70803363  0.80232357    -0.10900
C1183       C  0.51894431  0.72428174  0.89162251     0.05600
H1184       H  0.48562416  0.76964339  0.85750596     0.07500
H1185       H  0.47810599  0.77157936  0.79798584     0.11000
H1186       H  0.54570421  0.69014998  0.78731258     0.11200
H1187       H  0.55307397  0.68864433  0.84705659     0.07500
C1188       C  0.48928154  0.71558448  0.90654289    -0.11600
C1189       C  0.48661570  0.71564056  0.94053655    -0.10900
C1190       C  0.51355376  0.72483951  0.95998537    -0.01800
C1191       C  0.54394037  0.73140990  0.94490686    -0.12000
C1192       C  0.54663986  0.73100446  0.91073669    -0.10400
H1193       H  0.46786114  0.70997875  0.89176866     0.07500
H1194       H  0.46298157  0.71013859  0.95138662     0.11200
H1195       H  0.56521090  0.73817113  0.95936657     0.11000
H1196       H  0.56970975  0.73754405  0.89922994     0.07500
C1197       C  0.81119520  0.08524709  0.99930061    -0.11600
C1198       C  0.79164935  0.10413302  0.02041880     0.05600
C1199       C  0.77110756  0.08852552  0.04327342    -0.10300
C1200       C  0.76748667  0.05450651  0.04262354    -0.12000
C1201       C  0.78411490  0.03592468  0.01880269    -0.01800
C1202       C  0.80739787  0.05127036  0.99844994    -0.10900
C1203       C  0.78845324  0.13954318  0.01461840     0.05600
H1204       H  0.75619900  0.10286128  0.06004678     0.07500
H1205       H  0.74969530  0.04321166  0.05886994     0.11000
H1206       H  0.82103171  0.03732326  0.98031957     0.11200
H1207       H  0.82723701  0.09691112  0.98153810     0.07500
C1208       C  0.81625266  0.15946913  0.01106594    -0.11600
C1209       C  0.81267505  0.19260165  0.00309207    -0.10900
C1210       C  0.78126851  0.20597238  0.99802783    -0.01800
C1211       C  0.75355132  0.18582108  0.00120611    -0.12000
C1212       C  0.75711897  0.15290036  0.00960625    -0.10400
H1213       H  0.84061257  0.14938665  0.01449941     0.07500
H1214       H  0.83444101  0.20770180  0.00075519     0.11200
H1215       H  0.72907308  0.19557513  0.99770757     0.11000
H1216       H  0.73540420  0.13764695  0.01149022     0.07500
C1217       C  0.08896645  0.03578048  0.74477012    -0.11600
C1218       C  0.10591844  0.01158903  0.76231998     0.05600
C1219       C  0.08885817  0.98619944  0.77806359    -0.10300
C1220       C  0.05496755  0.98465414  0.77581766    -0.12000
C1221       C  0.03780031  0.00862170  0.75793463    -0.01800
C1222       C  0.05498415  0.03444802  0.74274659    -0.10900
C1223       C  0.14154868  0.01202247  0.76359154     0.05600
H1224       H  0.10185264  0.96722648  0.79150564     0.07500
H1225       H  0.04230300  0.96460688  0.78792032     0.11000
H1226       H  0.04229846  0.05327176  0.72884205     0.11200
H1227       H  0.10204737  0.05557113  0.73266491     0.07500
C1228       C  0.15977620  0.01261118  0.73437461    -0.11600
C1229       C  0.19370557  0.00939989  0.73557886    -0.10900
C1230       C  0.20947074  0.00610997  0.76604529    -0.01800
C1231       C  0.19117207  0.00680464  0.79527273    -0.12000
C1232       C  0.15733673  0.00952899  0.79401834    -0.10400
H1233       H  0.14765584  0.01431647  0.71071220     0.07500
H1234       H  0.20752853  0.00908582  0.71281801     0.11200
H1235       H  0.20286581  0.00410863  0.81905400     0.11000
H1236       H  0.14338773  0.00913574  0.81671300     0.07500
C1237       C  0.01899162  0.79101723  0.16090413    -0.11600
C1238       C  0.01479477  0.76056054  0.14543015     0.05600
C1239       C  0.01095033  0.73195749  0.16423777    -0.10300
C1240       C  0.00878777  0.73415173  0.19824821    -0.12000
C1241       C  0.01058000  0.76496547  0.21367324    -0.01800
C1242       C  0.01706764  0.79321533  0.19490875    -0.10900
C1243       C  0.01156424  0.75895056  0.10975113     0.05600
H1244       H  0.00772907  0.70823195  0.15254565     0.07500
H1245       H  0.00428340  0.71196088  0.21227875     0.11000
H1246       H  0.01884725  0.81725750  0.20623474     0.11200
H1247       H  0.02252946  0.81321147  0.14658407     0.07500
C1248       C  0.99006760  0.78048404  0.09353044    -0.11600
C1249       C  0.98595057  0.77827079  0.05967342    -0.10900
C1250       C  0.00356380  0.75471569  0.04181494    -0.01800
C1251       C  0.02479799  0.73298100  0.05817955    -0.12000
C1252       C  0.02868245  0.73502458  0.09200021    -0.10400
H1253       H  0.97622880  0.79872762  0.10712356     0.07500
H1254       H  0.96959933  0.79533934  0.04743692     0.11200
H1255       H  0.03849771  0.71445968  0.04482634     0.11000
H1256       H  0.04525345  0.71818868  0.10427539     0.07500
C1257       C  0.26755486  0.66208224  0.48510546    -0.11600
C1258       C  0.23866428  0.64343773  0.48453464     0.05600
C1259       C  0.20812819  0.65901122  0.48234232    -0.10300
C1260       C  0.20636043  0.69308060  0.48234579    -0.12000
C1261       C  0.23514395  0.71183399  0.48499668    -0.01800
C1262       C  0.26580056  0.69618404  0.48548079    -0.10900
C1263       C  0.24030629  0.60780600  0.48801830     0.05600
H1264       H  0.18567073  0.64478023  0.48144527     0.07500
H1265       H  0.18241299  0.70461466  0.48195478     0.11000
H1266       H  0.28830567  0.71024338  0.48725385     0.11200
H1267       H  0.29131872  0.65026823  0.48678455     0.07500
C1268       C  0.26162445  0.58963397  0.46814554    -0.11600
C1269       C  0.26325032  0.55574234  0.47156867    -0.10900
C1270       C  0.24373810  0.53969881  0.49511631    -0.01800
C1271       C  0.22284089  0.55803116  0.51544447    -0.12000
C1272       C  0.22101563  0.59196140  0.51178711    -0.10400
H1273       H  0.27664589  0.60163896  0.44972052     0.07500
H1274       H  0.27972012  0.54211875  0.45570624     0.11200
H1275       H  0.20750388  0.54613965  0.53366593     0.11000
H1276       H  0.20475715  0.60588759  0.52761782     0.07500
C1277       C  0.27514613  0.08789840  0.53987300    -0.11600
C1278       C  0.26457027  0.10477867  0.51185154     0.05600
C1279       C  0.25637728  0.08756669  0.48318669    -0.10300
C1280       C  0.25607616  0.05348067  0.48338971    -0.12000
C1281       C  0.26375127  0.03641197  0.51238158    -0.01800
C1282       C  0.27477709  0.05378260  0.54015868    -0.10900
C1283       C  0.25913353  0.14007270  0.51339613     0.05600
H1284       H  0.24881028  0.10054264  0.46117158     0.07500
H1285       H  0.24811385  0.04065779  0.46144095     0.11000
H1286       H  0.28119110  0.04121959  0.56275253     0.11200
H1287       H  0.28166937  0.10106366  0.56210983     0.07500
C1288       C  0.22861766  0.15289115  0.50391459    -0.11600
C1289       C  0.22346057  0.18660754  0.50429223    -0.10900
C1290       C  0.24898870  0.20755684  0.51363895    -0.01800
C1291       C  0.27909486  0.19471801  0.52425618    -0.12000
C1292       C  0.28405919  0.16096205  0.52444668    -0.10400
H1293       H  0.20898760  0.13680358  0.49590071     0.07500
H1294       H  0.20022473  0.19636955  0.49578938     0.11200
H1295       H  0.29894896  0.21085986  0.53157743     0.11000
H1296       H  0.30760117  0.15121649  0.53206620     0.07500
C1297       C  0.97244741  0.75858687  0.65581924    -0.11600
C1298       C  0.99348486  0.73609632  0.64039364     0.05600
C1299       C  0.01673403  0.71866541  0.65857271    -0.10300
C1300       C  0.01872122  0.72337778  0.69222692    -0.12000
C1301       C  0.99761186  0.74577545  0.70787336    -0.01800
C1302       C  0.97463011  0.76357919  0.68951963    -0.10900
C1303       C  0.99228411  0.73232071  0.60496926     0.05600
H1304       H  0.03316777  0.70139317  0.64671265     0.07500
H1305       H  0.03678864  0.70949474  0.70597937     0.11000
H1306       H  0.95803363  0.78077360  0.70123733     0.11200
H1307       H  0.95470532  0.77252463  0.64168919     0.07500
C1308       C  0.96233577  0.72584413  0.58957247    -0.11600
C1309       C  0.96020067  0.72716396  0.55559416    -0.10900
C1310       C  0.98797192  0.73542792  0.53687666    -0.01800
C1311       C  0.01841632  0.73979840  0.55236149    -0.12000
C1312       C  0.02056868  0.73813356  0.58636164    -0.10400
H1313       H  0.94045491  0.72100408  0.60392374     0.07500
H1314       H  0.93645282  0.72345959  0.54423664     0.11200
H1315       H  0.04022677  0.74583165  0.53838859     0.11000
H1316       H  0.04384172  0.74318066  0.59821875     0.07500
C1317       C  0.99740388  0.31130926  0.41426661    -0.11600
C1318       C  0.97790100  0.29186604  0.39367577     0.05600
C1319       C  0.95554376  0.26943978  0.40727514    -0.10300
C1320       C  0.95518310  0.26404446  0.44104446    -0.12000
C1321       C  0.97736856  0.28091535  0.46130038    -0.01800
C1322       C  0.99721564  0.30578442  0.44796300    -0.10900
C1323       C  0.98558419  0.29037823  0.35862352     0.05600
H1324       H  0.94008639  0.25450971  0.39154691     0.07500
H1325       H  0.93932197  0.24507228  0.45088677     0.11000
H1326       H  0.01396586  0.31966605  0.46330294     0.11200
H1327       H  0.01481091  0.32870208  0.40411562     0.07500
C1328       C  0.98919862  0.31914271  0.34001328    -0.11600
C1329       C  0.99904989  0.31710175  0.30727345    -0.10900
C1330       C  0.00582138  0.28630915  0.29313620    -0.01800
C1331       C  0.00293455  0.25770789  0.31214654    -0.12000
C1332       C  0.99271341  0.25973155  0.34458218    -0.10400
H1333       H  0.98426322  0.34300843  0.35077515     0.07500
H1334       H  0.00114938  0.33948892  0.29298657     0.11200
H1335       H  0.00774458  0.23364703  0.30178016     0.11000
H1336       H  0.99095444  0.23734703  0.35893852     0.07500
C1337       C  0.04272881  0.26355005  0.83926436    -0.11600
C1338       C  0.02856583  0.23809316  0.85759169     0.05600
C1339       C  0.01053266  0.21343704  0.84169460    -0.10300
C1340       C  0.00498914  0.21532306  0.80798985    -0.12000
C1341       C  0.01720255  0.24208438  0.78991075    -0.01800
C1342       C  0.03703057  0.26559027  0.80562474    -0.10900
C1343       C  0.02837489  0.24026322  0.89347745     0.05600
H1344       H  0.99955862  0.19356382  0.85563020     0.07500
H1345       H  0.98990983  0.19666423  0.79647009     0.11000
H1346       H  0.04715286  0.28625843  0.79223512     0.11200
H1347       H  0.05645754  0.28295770  0.85127204     0.07500
C1348       C  0.05735398  0.24667391  0.91090119    -0.11600
C1349       C  0.05606242  0.25283913  0.94458104    -0.10900
C1350       C  0.02569842  0.25330388  0.96083207    -0.01800
C1351       C  0.99686435  0.24622438  0.94343922    -0.12000
C1352       C  0.99822445  0.23954734  0.91001083    -0.10400
H1353       H  0.08077434  0.24744731  0.89832705     0.07500
H1354       H  0.07858393  0.25813546  0.95770007     0.11200
H1355       H  0.97323359  0.24598771  0.95563679     0.11000
H1356       H  0.97556329  0.23514439  0.89678812     0.07500
C1357       C  0.33706385  0.98473351  0.30502806    -0.11600
C1358       C  0.35520565  0.98450269  0.27582295     0.05600
C1359       C  0.33951482  0.98978005  0.24558097    -0.10300
C1360       C  0.30603777  0.99606989  0.24458109    -0.12000
C1361       C  0.28782838  0.99681215  0.27382219    -0.01800
C1362       C  0.30347241  0.99059573  0.30402187    -0.10900
C1363       C  0.39091400  0.98190305  0.27669624     0.05600
H1364       H  0.35339363  0.99014367  0.22284677     0.07500
H1365       H  0.29449034  0.00049826  0.22099337     0.11000
H1366       H  0.28992797  0.99101101  0.32694276     0.11200
H1367       H  0.34897955  0.98080956  0.32852998     0.07500
C1368       C  0.40906278  0.00406526  0.29582604    -0.11600
C1369       C  0.44282145  0.00652409  0.29149653    -0.10900
C1370       C  0.45867225  0.98658187  0.26823228    -0.01800
C1371       C  0.44072112  0.96259123  0.25108472    -0.12000
C1372       C  0.40696876  0.96043112  0.25514552    -0.10400
H1373       H  0.39687925  0.02088786  0.31250090     0.07500
H1374       H  0.45626090  0.02482509  0.30540050     0.11200
H1375       H  0.45240161  0.94670151  0.23319379     0.11000
H1376       H  0.39316794  0.94306473  0.24040143     0.07500
C1377       C  0.22809399  0.91237193  0.05382264    -0.11600
C1378       C  0.22725421  0.89467941  0.02439831     0.05600
C1379       C  0.22924414  0.91087581  0.99407026    -0.10300
C1380       C  0.23389173  0.94465001  0.99321214    -0.12000
C1381       C  0.23615626  0.96234544  0.02271014    -0.01800
C1382       C  0.23223183  0.94619430  0.05299711    -0.10900
C1383       C  0.22827827  0.85908436  0.02509963     0.05600
H1384       H  0.22886059  0.89716965  0.97120513     0.07500
H1385       H  0.23646904  0.95675089  0.96961083     0.11000
H1386       H  0.23383964  0.95942229  0.07607139     0.11200
H1387       H  0.22661797  0.89985566  0.07731242     0.07500
C1388       C  0.25499380  0.84332397  0.03994189    -0.11600
C1389       C  0.25904084  0.80963532  0.03621927    -0.10900
C1390       C  0.23619893  0.79157520  0.01782693    -0.01800
C1391       C  0.20858359  0.80740737  0.00439110    -0.12000
C1392       C  0.20480072  0.84107320  0.00782492    -0.10400
H1393       H  0.27344797  0.85732941  0.05305960     0.07500
H1394       H  0.28035389  0.79796021  0.04701735     0.11200
H1395       H  0.19043645  0.79408076  0.99021769     0.11000
H1396       H  0.18415814  0.85323914  0.99624020     0.07500
C1397       C  0.28710486  0.41131162  0.01502306    -0.11600
C1398       C  0.27523326  0.39467305  0.98732507     0.05600
C1399       C  0.25979259  0.41187232  0.96193275    -0.10300
C1400       C  0.25500083  0.44548243  0.96480011    -0.12000
C1401       C  0.26533786  0.46210182  0.99329900    -0.01800
C1402       C  0.28209798  0.44492836  0.01807363    -0.10900
C1403       C  0.27503981  0.35899000  0.98717471     0.05600
H1404       H  0.25053218  0.39907275  0.94046854     0.07500
H1405       H  0.24230952  0.45815794  0.94512818     0.11000
H1406       H  0.29058766  0.45721068  0.04013106     0.11200
H1407       H  0.29874412  0.39802033  0.03496536     0.07500
C1408       C  0.30407682  0.34151826  0.99262138    -0.11600
C1409       C  0.30289849  0.30765524  0.99679039    -0.10900
C1410       C  0.27258031  0.29132684  0.99621782    -0.01800
C1411       C  0.24366925  0.30879527  0.98985268    -0.12000
C1412       C  0.24493719  0.34252305  0.98509101    -0.10400
H1413       H  0.32739313  0.35419394  0.99438680     0.07500
H1414       H  0.32545507  0.29443843  0.00166551     0.11200
H1415       H  0.22013388  0.29644585  0.98894681     0.11000
H1416       H  0.22230949  0.35597545  0.98124519     0.07500
C1417       C  0.90756110  0.06475177  0.24340401    -0.11600
C1418       C  0.89013308  0.03611066  0.23562629     0.05600
C1419       C  0.90645501  0.00579229  0.23394175    -0.10300
C1420       C  0.93974132  0.00393251  0.24091364    -0.12000
C1421       C  0.95709254  0.03245891  0.24917555    -0.01800
C1422       C  0.94100217  0.06297050  0.24987559    -0.10900
C1423       C  0.85440820  0.03676705  0.23309840     0.05600
H1424       H  0.89317549  0.98335763  0.22851063     0.07500
H1425       H  0.95189254  0.98026255  0.23985845     0.11000
H1426       H  0.95411933  0.08527019  0.25618030     0.11200
H1427       H  0.89518426  0.08827859  0.24496110     0.07500
C1428       C  0.83605097  0.05071034  0.25866218    -0.11600
C1429       C  0.80248077  0.04521709  0.26037561    -0.10900
C1430       C  0.78691535  0.02579973  0.23644683    -0.01800
C1431       C  0.80498721  0.01406318  0.20947195    -0.12000
C1432       C  0.83861633  0.01942571  0.20789074    -0.10400
H1433       H  0.84796460  0.06400255  0.27843818     0.07500
H1434       H  0.78904077  0.05506750  0.28114098     0.11200
H1435       H  0.79351812  0.99943217  0.19040931     0.11000
H1436       H  0.85255944  0.00876346  0.18785781     0.07500
C1437       C  0.65516876  0.00345178  0.71592804    -0.11600
C1438       C  0.63879541  0.97964882  0.73444599     0.05600
C1439       C  0.65633086  0.95752942  0.75416145    -0.10300
C1440       C  0.69023834  0.96024283  0.75650156    -0.12000
C1441       C  0.70661417  0.98476628  0.73869392    -0.01800
C1442       C  0.68899232  0.00583794  0.71782032    -0.10900
C1443       C  0.60324472  0.97978646  0.73541848     0.05600
H1444       H  0.64365182  0.93915196  0.76868743     0.07500
H1445       H  0.70354103  0.94359578  0.77246725     0.11000
H1446       H  0.70118814  0.02498939  0.70390613     0.11200
H1447       H  0.64166868  0.02058700  0.70064100     0.07500
C1448       C  0.58683275  0.00814399  0.74590894    -0.11600
C1449       C  0.55299829  0.00775695  0.74950210    -0.10900
C1450       C  0.53535639  0.97900368  0.74240102    -0.01800
C1451       C  0.55193500  0.95100617  0.73070131    -0.12000
C1452       C  0.58579723  0.95134556  0.72747676    -0.10400
H1453       H  0.60034792  0.03019723  0.75227268     0.07500
H1454       H  0.54083700  0.02968412  0.75844320     0.11200
H1455       H  0.53894544  0.92851379  0.72489087     0.11000
H1456       H  0.59843943  0.92940604  0.71921380     0.07500
C1457       C  0.49430060  0.19747341  0.65764112    -0.11600
C1458       C  0.49007419  0.22788962  0.64197015     0.05600
C1459       C  0.48773687  0.25678969  0.66056700    -0.10300
C1460       C  0.49046157  0.25546251  0.69447295    -0.12000
C1461       C  0.49538023  0.22520299  0.71017214    -0.01800
C1462       C  0.49669642  0.19609958  0.69175303    -0.10900
C1463       C  0.48959285  0.23012120  0.60617739     0.05600
H1464       H  0.48484215  0.28051593  0.64878825     0.07500
H1465       H  0.48914697  0.27815046  0.70839540     0.11000
H1466       H  0.50061931  0.17256756  0.70360855     0.11200
H1467       H  0.49599206  0.17496289  0.64348716     0.07500
C1468       C  0.51398589  0.21453473  0.58755336    -0.11600
C1469       C  0.51541151  0.21950326  0.55375654    -0.10900
C1470       C  0.49233566  0.23997875  0.53837040    -0.01800
C1471       C  0.46754103  0.25493692  0.55706558    -0.12000
C1472       C  0.46618689  0.25001458  0.59074467    -0.10400
H1473       H  0.53245072  0.19936826  0.59926755     0.07500
H1474       H  0.53453057  0.20739862  0.53976573     0.11200
H1475       H  0.44935090  0.27074144  0.54578476     0.11000
H1476       H  0.44707744  0.26203196  0.60484693     0.07500
C1477       C  0.55635961  0.27087537  0.08806344    -0.11600
C1478       C  0.52826345  0.26964103  0.10769398     0.05600
C1479       C  0.49811981  0.26007874  0.09401184    -0.10300
C1480       C  0.49620502  0.25120177  0.06102296    -0.12000
C1481       C  0.52441614  0.25202050  0.04134653    -0.01800
C1482       C  0.55444828  0.26225422  0.05508190    -0.10900
C1483       C  0.53077601  0.27459032  0.14317790     0.05600
H1484       H  0.47630186  0.25840763  0.10914468     0.07500
H1485       H  0.47276840  0.24359970  0.05104099     0.11000
H1486       H  0.57667781  0.26319647  0.04052436     0.11200
H1487       H  0.57980269  0.27802137  0.09840330     0.07500
C1488       C  0.55331230  0.25584370  0.16125844    -0.11600
C1489       C  0.55051165  0.25397290  0.19527699    -0.10900
C1490       C  0.52541470  0.27117015  0.21139511    -0.01800
C1491       C  0.50511417  0.29259933  0.19354297    -0.12000
C1492       C  0.50761986  0.29408495  0.15949269    -0.10400
H1493       H  0.57133478  0.24062892  0.14892208     0.07500
H1494       H  0.56672574  0.23770390  0.20873244     0.11200
H1495       H  0.48568576  0.30626167  0.20553103     0.11000
H1496       H  0.49028914  0.30889261  0.14574244     0.07500
C1497       C  0.08941300  0.49804609  0.25552628    -0.11600
C1498       C  0.10516614  0.52829262  0.26000172     0.05600
C1499       C  0.08742524  0.55767731  0.25897485    -0.10300
C1500       C  0.05381212  0.55678971  0.25373306    -0.12000
C1501       C  0.03795638  0.52650762  0.24900966    -0.01800
C1502       C  0.05593575  0.49714315  0.24988734    -0.10900
C1503       C  0.14055619  0.52890657  0.26311608     0.05600
H1504       H  0.09962137  0.58114407  0.26212831     0.07500
H1505       H  0.04034064  0.57973760  0.25300366     0.11000
H1506       H  0.04414927  0.47350972  0.24648607     0.11200
H1507       H  0.10317059  0.47523953  0.25569894     0.07500
C1508       C  0.15588940  0.50899585  0.28657013    -0.11600
C1509       C  0.18962700  0.50492870  0.28568564    -0.10900
C1510       C  0.20808336  0.52048356  0.26105178    -0.01800
C1511       C  0.19276687  0.54197103  0.23882388    -0.12000
C1512       C  0.15906902  0.54622196  0.23992601    -0.10400
H1513       H  0.14158123  0.49562525  0.30462582     0.07500
H1514       H  0.20094711  0.48842076  0.30324447     0.11200
H1515       H  0.20659139  0.55460363  0.21989856     0.11000
H1516       H  0.14726459  0.56150150  0.22156807     0.07500
C1517       C  0.78775176  0.59121263  0.98117850    -0.11600
C1518       C  0.75970531  0.60723474  0.96940886     0.05600
C1519       C  0.73426630  0.58913449  0.95489017    -0.10300
C1520       C  0.73640674  0.55496549  0.95332360    -0.12000
C1521       C  0.76366038  0.53893884  0.96694406    -0.01800
C1522       C  0.78962391  0.55721977  0.98013784    -0.10900
C1523       C  0.75656898  0.64258947  0.97453638     0.05600
H1524       H  0.71255010  0.60137661  0.94561354     0.07500
H1525       H  0.71605566  0.54104250  0.94333016     0.11000
H1526       H  0.81082776  0.54510780  0.99071415     0.11200
H1527       H  0.80748449  0.60491727  0.99263652     0.07500
C1528       C  0.72945079  0.65529420  0.99151496    -0.11600
C1529       C  0.72843050  0.68854246  0.99969483    -0.10900
C1530       C  0.75450408  0.70929977  0.99084009    -0.01800
C1531       C  0.78135078  0.69637269  0.97337986    -0.12000
C1532       C  0.78233810  0.66328850  0.96532340    -0.10400
H1533       H  0.70961565  0.63932490  0.99923351     0.07500
H1534       H  0.70740787  0.69788705  0.01303517     0.11200
H1535       H  0.80171265  0.71172884  0.96584762     0.11000
H1536       H  0.80342750  0.65369395  0.95222916     0.16300
loop_ 
_geom_bond_atom_site_label_1 
_geom_bond_atom_site_label_2 
_geom_bond_distance 
_geom_bond_site_symmetry_2 
_ccdc_geom_bond_type 
O1           Mg3   2.166       .  S
O1           Mg9   2.134       .  S
O1           C36   1.239       .  S
C2           O15   1.240       .  S
C2           O39   1.273       .  A
C2           H41   1.081       .  S
Mg3          O32   2.156       .  S
Mg3          O47   2.447       .  S
Mg3          O43   2.371       .  S
Mg3          O14   2.312       .  S
O4          Mg46   2.146       .  S
O4          Mg29   2.165       .  S
O4           C25   1.240       .  S
O5           C36   1.275       .  A
O5          Mg29   2.318       .  S
C6            O8   1.263       .  A
C6           O20   1.299       .  A
C6          C495   1.494       .  S
O7           C35   1.274       .  A
O7           Mg9   2.301       .  S
O8          Mg40   2.214       .  S
Mg9          O15   2.146       .  S
Mg9          O23   2.187       .  S
Mg9          O11   2.303       .  S
C10          O48   1.290       .  A
C10          O16   1.266       .  A
C10         C503   1.497       .  S
O11          C18   1.269       .  A
H12          C25   1.081       .  S
C13          O27   1.240       .  S
C13          O28   1.273       .  A
C13          H38   1.081       .  S
O14          C37   1.274       .  A
O15         Mg29   2.141       .  S
O16         Mg46   2.262       .  S
C17          O30   1.263       .  A
C17          O22   1.299       .  A
C17         C519   1.495       .  S
C18          O45   1.293       .  A
C18         C513   1.505       .  S
Mg19         O26   2.154       .  S
Mg19         O27   2.158       .  S
Mg19         O20   2.461       .  S
Mg19         O21   2.318       .  S
Mg19         O48   2.386       .  S
O21          C25   1.275       .  A
O22         Mg29   2.460       .  S
O23          C42   1.262       .  A
O24          C44   1.264       .  A
O24         Mg40   2.258       .  S
O26         Mg40   2.144       .  S
O26          C37   1.240       .  S
O27         Mg46   2.153       .  S
O28         Mg40   2.300       .  S
Mg29         O45   2.385       .  S
O30         Mg46   2.215       .  S
H31          C36   1.081       .  S
O32         Mg40   2.151       .  S
O32          C35   1.241       .  S
H33          C35   1.081       .  S
H34          C37   1.081       .  S
O39         Mg46   2.300       .  S
C42          O47   1.294       .  A
C42         C507   1.486       .  S
O43          C44   1.288       .  A
C44         C491   1.493       .  S
O49         Mg51   2.171       .  S
O49         Mg57   2.134       .  S
O49          C84   1.240       .  S
C50          O63   1.239       .  S
C50          O87   1.273       .  A
C50          H89   1.081       .  S
Mg51         O80   2.155       .  S
Mg51         O95   2.453       .  S
Mg51         O91   2.388       .  S
Mg51         O62   2.313       .  S
O52         Mg94   2.148       .  S
O52         Mg77   2.159       .  S
O52          C73   1.240       .  S
O53          C84   1.275       .  A
O53         Mg77   2.320       .  S
C54          O56   1.262       .  A
C54          O68   1.298       .  A
C54         C501   1.492       .  S
O55          C83   1.274       .  A
O55         Mg57   2.300       .  S
O56         Mg88   2.207       .  S
Mg57         O63   2.145       .  S
Mg57         O71   2.176       .  S
Mg57         O59   2.294       .  S
C58          O96   1.290       .  A
C58          O64   1.264       .  A
C58         C455   1.493       .  S
O59          C66   1.267       .  A
H60          C73   1.081       .  S
C61          O75   1.240       .  S
C61          O76   1.274       .  A
C61          H86   1.081       .  S
O62          C85   1.274       .  A
O63         Mg77   2.142       .  S
O64         Mg94   2.252       .  S
C65          O78   1.263       .  A
C65          O70   1.300       .  A
C65         C471   1.499       .  S
C66          O93   1.294       .  A
C66         C155   1.506       .  S
Mg67         O74   2.155       .  S
Mg67         O75   2.159       .  S
Mg67         O68   2.458       .  S
Mg67         O69   2.315       .  S
Mg67         O96   2.379       .  S
O69          C73   1.275       .  A
O70         Mg77   2.472       .  S
O71          C90   1.260       .  A
O72          C92   1.264       .  A
O72         Mg88   2.258       .  S
O74         Mg88   2.142       .  S
O74          C85   1.239       .  S
O75         Mg94   2.158       .  S
O76         Mg88   2.302       .  S
Mg77         O93   2.392       .  S
O78         Mg94   2.218       .  S
H79          C84   1.081       .  S
O80         Mg88   2.142       .  S
O80          C83   1.241       .  S
H81          C83   1.081       .  S
H82          C85   1.081       .  S
O87         Mg94   2.296       .  S
C90          O95   1.295       .  A
C90         C525   1.484       .  S
O91          C92   1.290       .  A
C92         C521   1.498       .  S
O97         Mg99   2.174       .  S
O97        Mg105   2.133       .  S
O97         C132   1.240       .  S
C98         O111   1.239       .  S
C98         O135   1.273       .  A
C98         H137   1.081       .  S
Mg99        O128   2.143       .  S
Mg99        O143   2.444       .  S
Mg99        O139   2.377       .  S
Mg99        O110   2.319       .  S
O100       Mg142   2.143       .  S
O100       Mg125   2.180       .  S
O100        C121   1.241       .  S
O101        C132   1.275       .  A
O101       Mg125   2.320       .  S
C102        O104   1.262       .  A
C102        O116   1.298       .  A
C102        C485   1.490   1_554  S
O103        C131   1.272       .  A
O103       Mg105   2.300       .  S
O104       Mg136   2.202       .  S
Mg105       O111   2.135       .  S
Mg105       O119   2.162       .  S
Mg105       O107   2.283       .  S
C106        O144   1.290       .  A
C106        O112   1.267       .  A
C106        C297   1.501       .  S
O107        C114   1.265       .  A
H108        C121   1.081       .  S
C109        O123   1.239       .  S
C109        O124   1.273       .  A
C109        H134   1.081       .  S
O110        C133   1.276       .  A
O111       Mg125   2.136       .  S
O112       Mg142   2.274       .  S
C113        O126   1.262       .  A
C113        O118   1.296       .  A
C113        C303   1.488   1_655  S
C114        O141   1.293       .  A
C114        C153   1.506       .  S
Mg115       O122   2.167       .  S
Mg115       O123   2.144       .  S
Mg115       O116   2.461       .  S
Mg115       O117   2.327       .  S
Mg115       O144   2.389       .  S
O117        C121   1.277       .  A
O118       Mg125   2.448       .  S
O119        C138   1.257       .  A
O120        C140   1.265       .  A
O120       Mg136   2.263       .  S
O122       Mg136   2.140       .  S
O122        C133   1.241       .  S
O123       Mg142   2.147       .  S
O124       Mg136   2.301       .  S
Mg125       O141   2.399       .  S
O126       Mg142   2.205       .  S
H127        C132   1.081       .  S
O128       Mg136   2.136       .  S
O128        C131   1.239       .  S
H129        C131   1.081       .  S
H130        C133   1.081       .  S
O135       Mg142   2.301       .  S
C138        O143   1.294       .  A
C138        C527   1.478       .  S
O139        C140   1.288       .  A
C140        C149   1.495       .  S
C145       C1521   1.454       .  S
C145        N146   1.360       .  A
C145        N150   1.358   1_556  A
N146        C147   1.354       .  A
C147        C173   1.491       .  S
C147        N148   1.377       .  A
N148        C149   1.371   1_556  A
C149        N150   1.347       .  A
C151       C1501   1.454       .  S
C151        N152   1.353   1_455  A
C151        N156   1.352   1_455  A
N152        C153   1.348       .  A
C153        N154   1.387       .  A
N154        C155   1.386       .  A
C155        N156   1.347       .  A
O157       Mg159   2.192       .  S
O157       Mg165   2.136       .  S
O157        C192   1.241       .  S
C158        O171   1.239       .  S
C158        O195   1.273       .  A
C158        H197   1.081       .  S
Mg159       O188   2.131       .  S
Mg159       O203   2.439       .  S
Mg159       O199   2.396       .  S
Mg159       O170   2.320       .  S
O160       Mg202   2.142       .  S
O160       Mg185   2.179       .  S
O160        C181   1.242       .  S
O161        C192   1.278       .  A
O161       Mg185   2.331       .  S
C162        O164   1.257       .  A
C162        O176   1.295       .  A
C162        C255   1.478       .  S
O163        C191   1.273       .  A
O163       Mg165   2.305       .  S
O164       Mg196   2.166       .  S
Mg165       O171   2.140       .  S
Mg165       O179   2.173       .  S
Mg165       O167   2.290       .  S
C166        O204   1.288       .  A
C166        O172   1.268       .  A
C166        C483   1.502       .  S
O167        C174   1.266       .  A
H168        C181   1.081       .  S
C169        O183   1.238       .  S
C169        O184   1.271       .  A
C169        H194   1.081       .  S
O170        C193   1.276       .  A
O171       Mg185   2.134       .  S
O172       Mg202   2.282       .  S
C173        O186   1.262       .  A
C173        O178   1.297       .  A
C174        O201   1.292       .  A
C174        C515   1.508       .  S
Mg175       O182   2.176       .  S
Mg175       O183   2.135       .  S
Mg175       O176   2.449       .  S
Mg175       O177   2.326       .  S
Mg175       O204   2.388       .  S
O177        C181   1.278       .  A
O178       Mg185   2.461       .  S
O179        C198   1.258       .  A
O180        C200   1.263       .  A
O180       Mg196   2.274       .  S
O182       Mg196   2.133       .  S
O182        C193   1.240       .  S
O183       Mg202   2.130       .  S
O184       Mg196   2.298       .  S
Mg185       O201   2.399       .  S
O186       Mg202   2.199       .  S
H187        C192   1.081       .  S
O188       Mg196   2.135       .  S
O188        C191   1.238       .  S
H189        C191   1.081       .  S
H190        C193   1.081       .  S
O195       Mg202   2.303       .  S
C198        O203   1.293       .  A
C198        C509   1.477       .  S
O199        C200   1.291       .  A
C200        C261   1.504       .  S
O205       Mg207   2.180       .  S
O205       Mg213   2.136       .  S
O205        C240   1.241       .  S
C206        O219   1.239       .  S
C206        O243   1.273       .  A
C206        H245   1.081       .  S
Mg207       O236   2.135       .  S
Mg207       O251   2.469       .  S
Mg207       O247   2.389       .  S
Mg207       O218   2.322       .  S
O208       Mg250   2.145       .  S
O208       Mg233   2.157       .  S
O208        C229   1.240       .  S
O209        C240   1.277       .  A
O209       Mg233   2.326       .  S
C210        O212   1.260       .  A
C210        O224   1.294       .  A
C210        C287   1.484       .  S
O211        C239   1.274       .  A
O211       Mg213   2.301       .  S
O212       Mg244   2.169       .  S
Mg213       O219   2.149       .  S
Mg213       O227   2.189       .  S
Mg213       O215   2.305       .  S
C214        O252   1.289       .  A
C214        O220   1.264       .  A
C214        C477   1.494       .  S
O215        C222   1.270       .  A
H216        C229   1.081       .  S
C217        O231   1.240       .  S
C217        O232   1.273       .  A
C217        H242   1.081       .  S
O218        C241   1.276       .  A
O219       Mg233   2.141       .  S
O220       Mg250   2.256       .  S
C221        O234   1.262       .  A
C221        O226   1.301       .  A
C221        C269   1.498       .  S
C222        O249   1.293       .  A
C222        C263   1.507       .  S
Mg223       O230   2.174       .  S
Mg223       O231   2.153       .  S
Mg223       O224   2.451       .  S
Mg223       O225   2.313       .  S
Mg223       O252   2.378       .  S
O225        C229   1.275       .  A
O226       Mg233   2.480       .  S
O227        C246   1.263       .  A
O228        C248   1.268       .  A
O228       Mg244   2.302       .  S
O230       Mg244   2.137       .  S
O230        C241   1.240       .  S
O231       Mg250   2.149       .  S
O232       Mg244   2.301       .  S
Mg233       O249   2.389       .  S
O234       Mg250   2.207       .  S
H235        C240   1.081       .  S
O236       Mg244   2.138       .  S
O236        C239   1.240       .  S
H237        C239   1.081       .  S
H238        C241   1.081       .  S
O243       Mg250   2.297       .  S
C246        O251   1.296       .  A
C246        C257   1.494       .  S
O247        C248   1.292       .  A
C248        C279   1.507       .  S
C253       C1481   1.466       .  S
C253        N254   1.360   1_554  A
C253        N258   1.369   1_554  A
N254        C255   1.344       .  A
C255        N256   1.366       .  A
N256        C257   1.368       .  A
C257        N258   1.357       .  A
C259       C1461   1.453       .  S
C259        N260   1.353       .  A
C259        N264   1.354       .  A
N260        C261   1.346       .  A
C261        N262   1.385       .  A
N262        C263   1.385       .  A
C263        N264   1.352       .  A
C265       C1450   1.461       .  S
C265        N266   1.356       .  A
C265        N270   1.360   1_565  A
N266        C267   1.346       .  A
C267        C372   1.498       .  S
C267        N268   1.377       .  A
N268        C269   1.381   1_565  A
C269        N270   1.351       .  A
C271       C1421   1.457       .  S
C271        N272   1.366   1_655  A
C271        N276   1.361   1_655  A
N272        C273   1.353       .  A
C273        C444   1.490   1_545  S
C273        N274   1.367       .  A
N274        C275   1.366       .  A
C275        C348   1.480       .  S
C275        N276   1.348       .  A
C277       C1410   1.453   1_554  S
C277        N278   1.352   1_554  A
C277        N282   1.355       .  A
N278        C279   1.348       .  A
C279        N280   1.386   1_556  A
N280        C281   1.387       .  A
C281        C316   1.510       .  S
C281        N282   1.350       .  A
C283       C1381   1.455       .  S
C283        N284   1.360   1_565  A
C283        N288   1.364   1_564  A
N284        C285   1.346       .  A
C285        C323   1.477       .  S
C285        N286   1.366       .  A
N286        C287   1.367   1_554  A
C287        N288   1.351       .  A
C289       C1361   1.463   1_545  S
C289        N290   1.358       .  A
C289        N294   1.353   1_545  A
N290        C291   1.353       .  A
C291        C324   1.510       .  S
C291        N292   1.386       .  A
N292        C293   1.384       .  A
C293        C420   1.506   1_545  S
C293        N294   1.348   1_545  A
C295       C1350   1.459       .  S
C295        N296   1.360   1_456  A
C295        N300   1.359   1_556  A
N296        C297   1.350       .  A
C297        N298   1.374   1_655  A
N298        C299   1.378       .  A
C299        C312   1.493       .  S
C299        N300   1.350       .  A
C301       C1330   1.461       .  S
C301        N302   1.358       .  A
C301        N306   1.361       .  A
N302        C303   1.349       .  A
C303        N304   1.375       .  A
N304        C305   1.372       .  A
C305        C350   1.496       .  S
C305        N306   1.351       .  A
O307       Mg309   2.172       .  S
O307       Mg315   2.132       .  S
O307        C342   1.240       .  S
C308        O321   1.239       .  S
C308        O345   1.272       .  A
C308        H347   1.081       .  S
Mg309       O338   2.142       .  S
Mg309       O353   2.446       .  S
Mg309       O349   2.380       .  S
Mg309       O320   2.327       .  S
O310       Mg352   2.136       .  S
O310       Mg335   2.195       .  S
O310        C331   1.241       .  S
O311        C342   1.276       .  A
O311       Mg335   2.319       .  S
C312        O314   1.260       .  A
C312        O326   1.300       .  A
O313        C341   1.272       .  A
O313       Mg315   2.303       .  S
O314       Mg346   2.197       .  S
Mg315       O321   2.127       .  S
Mg315       O329   2.170       .  S
Mg315       O317   2.288       .  S
C316        O354   1.294       .  A
C316        O322   1.265       .  A
O317        C324   1.266       .  A
H318        C331   1.081       .  S
C319        O333   1.238       .  S
C319        O334   1.272       .  A
C319        H344   1.081       .  S
O320        C343   1.278       .  A
O321       Mg335   2.131       .  S
O322       Mg352   2.284       .  S
C323        O336   1.258       .  A
C323        O328   1.293       .  A
C324        O351   1.292       .  A
Mg325       O332   2.180       .  S
Mg325       O333   2.129       .  S
Mg325       O326   2.477       .  S
Mg325       O327   2.333       .  S
Mg325       O354   2.410       .  S
O327        C331   1.279       .  A
O328       Mg335   2.441       .  S
O329        C348   1.259       .  A
O330        C350   1.264       .  A
O330       Mg346   2.259       .  S
O332       Mg346   2.139       .  S
O332        C343   1.242       .  S
O333       Mg352   2.138       .  S
O334       Mg346   2.303       .  S
Mg335       O351   2.406       .  S
O336       Mg352   2.169       .  S
H337        C342   1.081       .  S
O338       Mg346   2.137       .  S
O338        C341   1.238       .  S
H339        C341   1.081       .  S
H340        C343   1.081       .  S
O345       Mg352   2.300       .  S
C348        O353   1.294       .  A
O349        C350   1.287       .  A
O355       Mg357   2.160       .  S
O355       Mg363   2.143       .  S
O355        C390   1.240       .  S
C356        O369   1.241       .  S
C356        O393   1.274       .  A
C356        H395   1.081       .  S
Mg357       O386   2.159       .  S
Mg357       O401   2.459       .  S
Mg357       O397   2.384       .  S
Mg357       O368   2.313       .  S
O358       Mg400   2.141       .  S
O358       Mg383   2.162       .  S
O358        C379   1.240       .  S
O359        C390   1.275       .  A
O359       Mg383   2.315       .  S
C360        O362   1.263       .  A
C360        O374   1.299       .  A
C360        C467   1.496       .  S
O361        C389   1.273       .  A
O361       Mg363   2.300       .  S
O362       Mg394   2.217       .  S
Mg363       O369   2.158       .  S
Mg363       O377   2.214       .  S
Mg363       O365   2.260       .  S
C364        O402   1.291       .  A
C364        O370   1.268       .  A
C364        C497   1.501       .  S
O365        C372   1.264       .  A
H366        C379   1.081       .  S
C367        O381   1.240       .  S
C367        O382   1.273       .  A
C367        H392   1.081       .  S
O368        C391   1.274       .  A
O369       Mg383   2.157       .  S
O370       Mg400   2.275       .  S
C371        O384   1.265       .  A
C371        O376   1.298       .  A
C371        C489   1.497       .  S
C372        O399   1.291       .  A
Mg373       O380   2.159       .  S
Mg373       O381   2.158       .  S
Mg373       O374   2.464       .  S
Mg373       O375   2.317       .  S
Mg373       O402   2.390       .  S
O375        C379   1.275       .  A
O376       Mg383   2.462       .  S
O377        C396   1.263       .  A
O378        C398   1.264       .  A
O378       Mg394   2.258       .  S
O380       Mg394   2.146       .  S
O380        C391   1.239       .  S
O381       Mg400   2.153       .  S
O382       Mg394   2.299       .  S
Mg383       O399   2.388       .  S
O384       Mg400   2.223       .  S
H385        C390   1.081       .  S
O386       Mg394   2.156       .  S
O386        C389   1.240       .  S
H387        C389   1.081       .  S
H388        C391   1.081       .  S
O393       Mg400   2.304       .  S
C396        O401   1.298       .  A
C396        C479   1.494       .  S
O397        C398   1.291       .  A
C398        C461   1.496       .  S
O403       Mg405   2.172       .  S
O403       Mg411   2.133       .  S
O403        C438   1.239       .  S
C404        O417   1.240       .  S
C404        O441   1.274       .  A
C404        H443   1.081       .  S
Mg405       O434   2.156       .  S
Mg405       O449   2.462       .  S
Mg405       O445   2.389       .  S
Mg405       O416   2.313       .  S
O406       Mg448   2.145       .  S
O406       Mg431   2.157       .  S
O406        C427   1.239       .  S
O407        C438   1.275       .  A
O407       Mg431   2.321       .  S
C408        O410   1.262       .  A
C408        O422   1.298       .  A
C408        C453   1.493       .  S
O409        C437   1.275       .  A
O409       Mg411   2.304       .  S
O410       Mg442   2.209       .  S
Mg411       O417   2.151       .  S
Mg411       O425   2.186       .  S
Mg411       O413   2.312       .  S
C412        O450   1.291       .  A
C412        O418   1.265       .  A
C412        C465   1.498       .  S
O413        C420   1.270       .  A
H414        C427   1.081       .  S
C415        O429   1.240       .  S
C415        O430   1.273       .  A
C415        H440   1.081       .  S
O416        C439   1.274       .  A
O417       Mg431   2.143       .  S
O418       Mg448   2.263       .  S
C419        O432   1.263       .  A
C419        O424   1.299       .  A
C419        C459   1.496       .  S
C420        O447   1.292       .  A
Mg421       O428   2.158       .  S
Mg421       O429   2.158       .  S
Mg421       O422   2.456       .  S
Mg421       O423   2.313       .  S
Mg421       O450   2.387       .  S
O423        C427   1.274       .  A
O424       Mg431   2.465       .  S
O425        C444   1.262       .  A
O426        C446   1.264       .  A
O426       Mg442   2.259       .  S
O428       Mg442   2.145       .  S
O428        C439   1.240       .  S
O429       Mg448   2.153       .  S
O430       Mg442   2.299       .  S
Mg431       O447   2.382       .  S
O432       Mg448   2.213       .  S
H433        C438   1.081       .  S
O434       Mg442   2.151       .  S
O434        C437   1.241       .  S
H435        C437   1.081       .  S
H436        C439   1.081       .  S
O441       Mg448   2.301       .  S
C444        O449   1.296       .  A
O445        C446   1.291       .  A
C446        C473   1.499   1_455  S
C451       C1310   1.457       .  S
C451        N452   1.358   1_655  A
C451        N456   1.356       .  A
N452        C453   1.349       .  A
C453        N454   1.379   1_455  A
N454        C455   1.376       .  A
C455        N456   1.347       .  A
C457       C1281   1.460       .  S
C457        N458   1.359   1_545  A
C457        N462   1.357   1_545  A
N458        C459   1.349       .  A
C459        N460   1.379       .  A
N460        C461   1.377       .  A
C461        N462   1.348       .  A
C463       C1261   1.458       .  S
C463        N464   1.357       .  A
C463        N468   1.358       .  A
N464        C465   1.349       .  A
C465        N466   1.377       .  A
N466        C467   1.379       .  A
C467        N468   1.349       .  A
C469       C1241   1.460       .  S
C469        N470   1.359   1_455  A
C469        N474   1.358       .  A
N470        C471   1.350       .  A
C471        N472   1.380       .  A
N472        C473   1.377       .  A
C473        N474   1.349   1_655  A
C475       C1230   1.455       .  S
C475        N476   1.355       .  A
C475        N480   1.359   1_545  A
N476        C477   1.346       .  A
C477        N478   1.376   1_545  A
N478        C479   1.379       .  A
C479        N480   1.351       .  A
C481       C1210   1.466       .  S
C481        N482   1.364       .  A
C481        N486   1.359   1_556  A
N482        C483   1.355       .  A
C483        N484   1.373       .  A
N484        C485   1.375       .  A
C485        N486   1.349   1_556  A
C487       C1181   1.463       .  S
C487        N488   1.361       .  A
C487        N492   1.356       .  A
N488        C489   1.353       .  A
C489        N490   1.378       .  A
N490        C491   1.374       .  A
C491        N492   1.348       .  A
C493       C1161   1.458       .  S
C493        N494   1.357       .  A
C493        N498   1.360       .  A
N494        C495   1.347       .  A
C495        N496   1.378       .  A
N496        C497   1.377       .  A
C497        N498   1.353       .  A
C499       C1141   1.457       .  S
C499        N500   1.357       .  A
C499        N504   1.359       .  A
N500        C501   1.345       .  A
C501        N502   1.377       .  A
N502        C503   1.376       .  A
C503        N504   1.353       .  A
C505       C1121   1.455       .  S
C505        N506   1.365       .  A
C505        N510   1.359       .  A
N506        C507   1.352       .  A
C507        N508   1.367       .  A
N508        C509   1.366       .  A
C509        N510   1.346       .  A
C511       C1101   1.459       .  S
C511        N512   1.352       .  A
C511        N516   1.356       .  A
N512        C513   1.347       .  A
C513        N514   1.384       .  A
N514        C515   1.386       .  A
C515        N516   1.352       .  A
C517       C1081   1.462       .  S
C517        N518   1.359       .  A
C517        N522   1.359       .  A
N518        C519   1.349       .  A
C519        N520   1.378       .  A
N520        C521   1.376       .  A
C521        N522   1.351       .  A
C523       C1061   1.458       .  S
C523        N524   1.364       .  A
C523        N528   1.361       .  A
N524        C525   1.350       .  A
C525        N526   1.366       .  A
N526        C527   1.367       .  A
C527        N528   1.348       .  A
O529       Mg531   2.138       .  S
O529       Mg537   2.136       .  S
O529        C564   1.239       .  S
C530        O543   1.241       .  S
C530        O567   1.277       .  A
C530        H569   1.081       .  S
Mg531       O560   2.129       .  S
Mg531       O575   2.281       .  S
Mg531       O571   2.178       .  S
Mg531       O542   2.304       .  S
O532       Mg574   2.139       .  S
O532       Mg557   2.139       .  S
O532        C553   1.239       .  S
O533        C564   1.274       .  A
O533       Mg557   2.308       .  S
C534        O536   1.290       .  A
C534        O548   1.266       .  A
C534        C957   1.502       .  S
O535        C563   1.277       .  A
O535       Mg537   2.324       .  S
O536       Mg568   2.380       .  S
Mg537       O543   2.181       .  S
Mg537       O551   2.387       .  S
Mg537       O539   2.461       .  S
C538        O576   1.258       .  A
C538        O544   1.297       .  A
C538        C965   1.485       .  S
O539        C546   1.295       .  A
H540        C553   1.081       .  S
C541        O555   1.241       .  S
C541        O556   1.277       .  A
C541        H566   1.081       .  S
O542        C565   1.273       .  A
O543       Mg557   2.127       .  S
O544       Mg574   2.468       .  S
C545        O558   1.291       .  A
C545        O550   1.267       .  A
C545        C741   1.505       .  S
C546        O573   1.259       .  A
C546       C1035   1.485       .  S
Mg547       O554   2.129       .  S
Mg547       O555   2.134       .  S
Mg547       O548   2.287       .  S
Mg547       O549   2.302       .  S
Mg547       O576   2.167       .  S
O549        C553   1.273       .  A
O550       Mg557   2.289       .  S
O551        C570   1.290       .  A
O552        C572   1.294       .  A
O552       Mg568   2.452       .  S
O554       Mg568   2.125       .  S
O554        C565   1.239       .  S
O555       Mg574   2.171       .  S
O556       Mg568   2.322       .  S
Mg557       O573   2.177       .  S
O558       Mg574   2.389       .  S
H559        C564   1.081       .  S
O560       Mg568   2.178       .  S
O560        C563   1.241       .  S
H561        C563   1.081       .  S
H562        C565   1.081       .  S
O567       Mg574   2.327       .  S
C570        O575   1.266       .  A
C570        C975   1.501       .  S
O571        C572   1.259       .  A
C572        C981   1.481       .  S
O577       Mg579   2.149       .  S
O577       Mg585   2.148       .  S
O577        C612   1.240       .  S
C578        O591   1.241       .  S
C578        O615   1.276       .  A
C578        H617   1.081       .  S
Mg579       O608   2.140       .  S
Mg579       O623   2.274       .  S
Mg579       O619   2.211       .  S
Mg579       O590   2.300       .  S
O580       Mg622   2.146       .  S
O580       Mg605   2.126       .  S
O580        C601   1.240       .  S
O581        C612   1.274       .  A
O581       Mg605   2.305       .  S
C582        O584   1.293       .  A
C582        O596   1.268       .  A
C582        C993   1.507       .  S
O583        C611   1.277       .  A
O583       Mg585   2.326       .  S
O584       Mg616   2.399       .  S
Mg585       O591   2.157       .  S
Mg585       O599   2.381       .  S
Mg585       O587   2.470       .  S
C586        O624   1.261       .  A
C586        O592   1.292       .  A
C586       C1023   1.478       .  S
O587        C594   1.298       .  A
H588        C601   1.081       .  S
C589        O603   1.240       .  S
C589        O604   1.275       .  A
C589        H614   1.081       .  S
O590        C613   1.273       .  A
O591       Mg605   2.134       .  S
O592       Mg622   2.438       .  S
C593        O606   1.287       .  A
C593        O598   1.264       .  A
C593       C1031   1.497       .  S
C594        O621   1.259       .  A
C594        C627   1.490       .  S
Mg595       O602   2.140       .  S
Mg595       O603   2.131       .  S
Mg595       O596   2.291       .  S
Mg595       O597   2.298       .  S
Mg595       O624   2.179       .  S
O597        C601   1.273       .  A
O598       Mg605   2.255       .  S
O599        C618   1.289       .  A
O600        C620   1.298       .  A
O600       Mg616   2.466       .  S
O602       Mg616   2.139       .  S
O602        C613   1.240       .  S
O603       Mg622   2.168       .  S
O604       Mg616   2.316       .  S
Mg605       O621   2.189       .  S
O606       Mg622   2.383       .  S
H607        C612   1.081       .  S
O608       Mg616   2.175       .  S
O608        C611   1.241       .  S
H609        C611   1.081       .  S
H610        C613   1.081       .  S
O615       Mg622   2.315       .  S
C618        O623   1.267       .  A
C618       C1007   1.499       .  S
O619        C620   1.264       .  A
C620        C969   1.494       .  S
C625       C1470   1.459       .  S
C625        N626   1.360       .  A
C625        N630   1.357       .  A
N626        C627   1.351       .  A
C627        N628   1.378       .  A
N628        C629   1.373       .  A
C629        C672   1.494       .  S
C629        N630   1.346       .  A
O631       Mg633   2.151       .  S
O631       Mg639   2.150       .  S
O631        C666   1.239       .  S
C632        O645   1.239       .  S
C632        O669   1.274       .  A
C632        H671   1.081       .  S
Mg633       O662   2.148       .  S
Mg633       O677   2.262       .  S
Mg633       O673   2.205       .  S
Mg633       O644   2.294       .  S
O634       Mg676   2.135       .  S
O634       Mg659   2.129       .  S
O634        C655   1.240       .  S
O635        C666   1.273       .  A
O635       Mg659   2.302       .  S
C636        O638   1.293       .  A
C636        O650   1.268       .  A
C636        C681   1.508       .  S
O637        C665   1.276       .  A
O637       Mg639   2.320       .  S
O638       Mg670   2.396       .  S
Mg639       O645   2.159       .  S
Mg639       O653   2.374       .  S
Mg639       O641   2.458       .  S
C640        O678   1.258       .  A
C640        O646   1.292       .  A
C640       C1011   1.475       .  S
O641        C648   1.296       .  A
H642        C655   1.081       .  S
C643        O657   1.239       .  S
C643        O658   1.274       .  A
C643        H668   1.081       .  S
O644        C667   1.272       .  A
O645       Mg659   2.135       .  S
O646       Mg676   2.428       .  S
C647        O660   1.290       .  A
C647        O652   1.267       .  A
C647        C743   1.501       .  S
C648        O675   1.258       .  A
C648       C1037   1.483       .  S
Mg649       O656   2.132       .  S
Mg649       O657   2.138       .  S
Mg649       O650   2.300       .  S
Mg649       O651   2.297       .  S
Mg649       O678   2.158       .  S
O651        C655   1.273       .  A
O652       Mg659   2.294       .  S
O653        C672   1.289       .  A
O654        C674   1.297       .  A
O654       Mg670   2.449       .  S
O656       Mg670   2.134       .  S
O656        C667   1.239       .  S
O657       Mg676   2.170       .  S
O658       Mg670   2.317       .  S
Mg659       O675   2.158       .  S
O660       Mg676   2.371       .  S
H661        C666   1.081       .  S
O662       Mg670   2.169       .  S
O662        C665   1.240       .  S
H663        C665   1.081       .  S
H664        C667   1.081       .  S
O669       Mg676   2.315       .  S
C672        O677   1.265       .  A
O673        C674   1.263       .  A
C674       C1029   1.490       .  S
C679       C1070   1.458       .  S
C679        N680   1.353       .  A
C679        N684   1.354       .  A
N680        C681   1.348       .  A
C681        N682   1.387       .  A
N682        C683   1.387       .  A
C683        C696   1.509       .  S
C683        N684   1.349       .  A
C685       C1190   1.466       .  S
C685        N686   1.360   1_556  A
C685        N690   1.362   1_556  A
N686        C687   1.350       .  A
C687        C762   1.491       .  S
C687        N688   1.377       .  A
N688        C689   1.372       .  A
C689        C732   1.498       .  S
C689        N690   1.351       .  A
O691       Mg693   2.133       .  S
O691       Mg699   2.143       .  S
O691        C726   1.240       .  S
C692        O705   1.240       .  S
C692        O729   1.274       .  A
C692        H731   1.081       .  S
Mg693       O722   2.141       .  S
Mg693       O737   2.273       .  S
Mg693       O733   2.188       .  S
Mg693       O704   2.305       .  S
O694       Mg736   2.135       .  S
O694       Mg719   2.130       .  S
O694        C715   1.240       .  S
O695        C726   1.273       .  A
O695       Mg719   2.299       .  S
C696        O698   1.294       .  A
C696        O710   1.267       .  A
O697        C725   1.277       .  A
O697       Mg699   2.325       .  S
O698       Mg730   2.405       .  S
Mg699       O705   2.159       .  S
Mg699       O713   2.376       .  S
Mg699       O701   2.455       .  S
C700        O738   1.260       .  A
C700        O706   1.293       .  A
C700       C1013   1.474       .  S
O701        C708   1.295       .  A
H702        C715   1.081       .  S
C703        O717   1.240       .  S
C703        O718   1.276       .  A
C703        H728   1.081       .  S
O704        C727   1.274       .  A
O705       Mg719   2.132       .  S
O706       Mg736   2.432       .  S
C707        O720   1.291       .  A
C707        O712   1.267       .  A
C707       C1017   1.504       .  S
C708        O735   1.260       .  A
C708       C1001   1.481       .  S
Mg709       O716   2.147       .  S
Mg709       O717   2.137       .  S
Mg709       O710   2.291       .  S
Mg709       O711   2.299       .  S
Mg709       O738   2.175       .  S
O711        C715   1.273       .  A
O712       Mg719   2.290       .  S
O713        C732   1.287       .  A
O714        C734   1.299       .  A
O714       Mg730   2.473       .  S
O716       Mg730   2.141       .  S
O716        C727   1.240       .  S
O717       Mg736   2.180       .  S
O718       Mg730   2.322       .  S
Mg719       O735   2.167       .  S
O720       Mg736   2.386       .  S
H721        C726   1.081       .  S
O722       Mg730   2.177       .  S
O722        C725   1.241       .  S
H723        C725   1.081       .  S
H724        C727   1.081       .  S
O729       Mg736   2.310       .  S
C732        O737   1.266       .  A
O733        C734   1.260       .  A
C734        C987   1.492       .  S
C739       C1270   1.460       .  S
C739        N740   1.357       .  A
C739        N744   1.351       .  A
N740        C741   1.354       .  A
C741        N742   1.385       .  A
N742        C743   1.382       .  A
C743        N744   1.346       .  A
O745       Mg747   2.154       .  S
O745       Mg753   2.153       .  S
O745        C780   1.239       .  S
C746        O759   1.240       .  S
C746        O783   1.274       .  A
C746        H785   1.081       .  S
Mg747       O776   2.147       .  S
Mg747       O791   2.277       .  S
Mg747       O787   2.217       .  S
Mg747       O758   2.296       .  S
O748       Mg790   2.149       .  S
O748       Mg773   2.135       .  S
O748        C769   1.240       .  S
O749        C780   1.273       .  A
O749       Mg773   2.302       .  S
C750        O752   1.292       .  A
C750        O764   1.269       .  A
C750        C995   1.507       .  S
O751        C779   1.276       .  A
O751       Mg753   2.324       .  S
O752       Mg784   2.391       .  S
Mg753       O759   2.156       .  S
Mg753       O767   2.383       .  S
Mg753       O755   2.466       .  S
C754        O792   1.260       .  A
C754        O760   1.291       .  A
C754       C1025   1.477       .  S
O755        C762   1.298       .  A
H756        C769   1.081       .  S
C757        O771   1.239       .  S
C757        O772   1.274       .  A
C757        H782   1.081       .  S
O758        C781   1.273       .  A
O759       Mg773   2.141       .  S
O760       Mg790   2.422       .  S
C761        O774   1.286       .  A
C761        O766   1.265       .  A
C761        C989   1.494       .  S
C762        O789   1.261       .  A
Mg763       O770   2.133       .  S
Mg763       O771   2.134       .  S
Mg763       O764   2.304       .  S
Mg763       O765   2.298       .  S
Mg763       O792   2.172       .  S
O765        C769   1.273       .  A
O766       Mg773   2.269       .  S
O767        C786   1.289       .  A
O768        C788   1.295       .  A
O768       Mg784   2.442       .  S
O770       Mg784   2.135       .  S
O770        C781   1.239       .  S
O771       Mg790   2.162       .  S
O772       Mg784   2.314       .  S
Mg773       O789   2.190       .  S
O774       Mg790   2.363       .  S
H775        C780   1.081       .  S
O776       Mg784   2.177       .  S
O776        C779   1.240       .  S
H777        C779   1.081       .  S
H778        C781   1.081       .  S
O783       Mg790   2.312       .  S
C786        O791   1.269       .  A
C786        C797   1.499       .  S
O787        C788   1.265       .  A
C788       C1047   1.491       .  S
C793       C1530   1.466       .  S
C793        N794   1.357       .  A
C793        N798   1.362   1_556  A
N794        C795   1.345       .  A
C795        C870   1.488       .  S
C795        N796   1.375   1_556  A
N796        C797   1.375       .  A
C797        N798   1.355       .  A
O799       Mg801   2.147       .  S
O799       Mg807   2.137       .  S
O799        C834   1.239       .  S
C800        O813   1.240       .  S
C800        O837   1.275       .  A
C800        H839   1.081       .  S
Mg801       O830   2.139       .  S
Mg801       O845   2.302       .  S
Mg801       O841   2.191       .  S
Mg801       O812   2.295       .  S
O802       Mg844   2.145       .  S
O802       Mg827   2.130       .  S
O802        C823   1.239       .  S
O803        C834   1.272       .  A
O803       Mg827   2.299       .  S
C804        O806   1.291       .  A
C804        O818   1.266       .  A
C804       C1053   1.503       .  S
O805        C833   1.276       .  A
O805       Mg807   2.325       .  S
O806       Mg838   2.383       .  S
Mg807       O813   2.161       .  S
Mg807       O821   2.377       .  S
Mg807       O809   2.451       .  S
C808        O846   1.258       .  A
C808        O814   1.291       .  A
C808        C849   1.473       .  S
O809        C816   1.297       .  A
H810        C823   1.081       .  S
C811        O825   1.240       .  S
C811        O826   1.275       .  A
C811        H836   1.081       .  S
O812        C835   1.272       .  A
O813       Mg827   2.146       .  S
O814       Mg844   2.425       .  S
C815        O828   1.288       .  A
C815        O820   1.263       .  A
C815        C971   1.492       .  S
C816        O843   1.259       .  A
C816       C1005   1.486       .  S
Mg817       O824   2.126       .  S
Mg817       O825   2.137       .  S
Mg817       O818   2.289       .  S
Mg817       O819   2.297       .  S
Mg817       O846   2.155       .  S
O819        C823   1.272       .  A
O820       Mg827   2.255       .  S
O821        C840   1.290       .  A
O822        C842   1.294       .  A
O822       Mg838   2.445       .  S
O824       Mg838   2.132       .  S
O824        C835   1.239       .  S
O825       Mg844   2.167       .  S
O826       Mg838   2.317       .  S
Mg827       O843   2.186       .  S
O828       Mg844   2.371       .  S
H829        C834   1.081       .  S
O830       Mg838   2.176       .  S
O830        C833   1.240       .  S
H831        C833   1.081       .  S
H832        C835   1.081       .  S
O837       Mg844   2.314       .  S
C840        O845   1.270       .  A
C840        C977   1.502       .  S
O841        C842   1.263       .  A
C842        C983   1.486       .  S
C847       C1441   1.454       .  S
C847        N848   1.359   1_565  A
C847        N852   1.365       .  A
N848        C849   1.344       .  A
C849        N850   1.363       .  A
N850        C851   1.363   1_545  A
C851        C862   1.478       .  S
C851        N852   1.353       .  A
O853       Mg855   2.140       .  S
O853       Mg861   2.135       .  S
O853        C888   1.239       .  S
C854        O867   1.241       .  S
C854        O891   1.276       .  A
C854        H893   1.081       .  S
Mg855       O884   2.136       .  S
Mg855       O899   2.306       .  S
Mg855       O895   2.176       .  S
Mg855       O866   2.299       .  S
O856       Mg898   2.146       .  S
O856       Mg881   2.134       .  S
O856        C877   1.240       .  S
O857        C888   1.273       .  A
O857       Mg881   2.302       .  S
C858        O860   1.292       .  A
C858        O872   1.266       .  A
C858       C1055   1.505       .  S
O859        C887   1.276       .  A
O859       Mg861   2.323       .  S
O860       Mg892   2.392       .  S
Mg861       O867   2.167       .  S
Mg861       O875   2.392       .  S
Mg861       O863   2.461       .  S
C862        O900   1.259       .  A
C862        O868   1.292       .  A
O863        C870   1.298       .  A
H864        C877   1.081       .  S
C865        O879   1.240       .  S
C865        O880   1.275       .  A
C865        H890   1.081       .  S
O866        C889   1.273       .  A
O867       Mg881   2.142       .  S
O868       Mg898   2.443       .  S
C869        O882   1.285       .  A
C869        O874   1.263       .  A
C869       C1049   1.490       .  S
C870        O897   1.260       .  A
Mg871       O878   2.130       .  S
Mg871       O879   2.125       .  S
Mg871       O872   2.285       .  S
Mg871       O873   2.301       .  S
Mg871       O900   2.164       .  S
O873        C877   1.273       .  A
O874       Mg881   2.247       .  S
O875        C894   1.292       .  A
O876        C896   1.295       .  A
O876       Mg892   2.454       .  S
O878       Mg892   2.136       .  S
O878        C889   1.240       .  S
O879       Mg898   2.160       .  S
O880       Mg892   2.316       .  S
Mg881       O897   2.196       .  S
O882       Mg898   2.366       .  S
H883        C888   1.081       .  S
O884       Mg892   2.180       .  S
O884        C887   1.240       .  S
H885        C887   1.081       .  S
H886        C889   1.081       .  S
O891       Mg898   2.320       .  S
C894        O899   1.270       .  A
C894       C1041   1.509       .  S
O895        C896   1.261       .  A
C896        C951   1.484       .  S
O901       Mg903   2.123       .  S
O901       Mg909   2.133       .  S
O901        C936   1.239       .  S
C902        O915   1.240       .  S
C902        O939   1.276       .  A
C902        H941   1.081       .  S
Mg903       O932   2.137       .  S
Mg903       O947   2.279       .  S
Mg903       O943   2.149       .  S
Mg903       O914   2.300       .  S
O904       Mg946   2.129       .  S
O904       Mg929   2.126       .  S
O904        C925   1.238       .  S
O905        C936   1.272       .  A
O905       Mg929   2.294       .  S
C906        O908   1.290       .  A
C906        O920   1.265       .  A
C906        C959   1.499       .  S
O907        C935   1.275       .  A
O907       Mg909   2.317       .  S
O908       Mg940   2.374       .  S
Mg909       O915   2.171       .  S
Mg909       O923   2.381       .  S
Mg909       O911   2.432       .  S
C910        O948   1.259       .  A
C910        O916   1.297       .  A
C910        C963   1.485       .  S
O911        C918   1.293       .  A
H912        C925   1.081       .  S
C913        O927   1.240       .  S
C913        O928   1.276       .  A
C913        H938   1.081       .  S
O914        C937   1.272       .  A
O915       Mg929   2.139       .  S
O916       Mg946   2.458       .  S
C917        O930   1.292       .  A
C917        O922   1.265       .  A
C917       C1019   1.501       .  S
C918        O945   1.257       .  A
C918        C999   1.474       .  S
Mg919       O926   2.136       .  S
Mg919       O927   2.142       .  S
Mg919       O920   2.284       .  S
Mg919       O921   2.292       .  S
Mg919       O948   2.165       .  S
O921        C925   1.271       .  A
O922       Mg929   2.279       .  S
O923        C942   1.291       .  A
O924        C944   1.294       .  A
O924       Mg940   2.439       .  S
O926       Mg940   2.131       .  S
O926        C937   1.239       .  S
O927       Mg946   2.169       .  S
O928       Mg940   2.320       .  S
Mg929       O945   2.151       .  S
O930       Mg946   2.385       .  S
H931        C936   1.081       .  S
O932       Mg940   2.167       .  S
O932        C935   1.239       .  S
H933        C935   1.081       .  S
H934        C937   1.081       .  S
O939       Mg946   2.322       .  S
C942        O947   1.264       .  A
C942       C1043   1.501       .  S
O943        C944   1.256       .  A
C944        C953   1.474       .  S
C949       C1301   1.452       .  S
C949        N950   1.365       .  A
C949        N954   1.357   1_655  A
N950        C951   1.354       .  A
C951        N952   1.367   1_655  A
N952        C953   1.366       .  A
C953        N954   1.341       .  A
C955       C1110   1.456       .  S
C955        N956   1.354   1_655  A
C955        N960   1.351   1_655  A
N956        C957   1.350       .  A
C957        N958   1.383       .  A
N958        C959   1.384       .  A
C959        N960   1.347       .  A
C961       C1130   1.462       .  S
C961        N962   1.362       .  A
C961        N966   1.364       .  A
N962        C963   1.348       .  A
C963        N964   1.369       .  A
N964        C965   1.368       .  A
C965        N966   1.350       .  A
C967       C1150   1.461       .  S
C967        N968   1.362   1_565  A
C967        N972   1.356   1_565  A
N968        C969   1.355       .  A
C969        N970   1.378       .  A
N970        C971   1.372       .  A
C971        N972   1.344       .  A
C973       C1321   1.461       .  S
C973        N974   1.355   1_655  A
C973        N978   1.355       .  A
N974        C975   1.349       .  A
C975        N976   1.381   1_455  A
N976        C977   1.383       .  A
C977        N978   1.352       .  A
C979       C1341   1.467       .  S
C979        N980   1.364       .  A
C979        N984   1.365   1_455  A
N980        C981   1.351       .  A
C981        N982   1.365   1_455  A
N982        C983   1.366       .  A
C983        N984   1.352       .  A
C985       C1170   1.463       .  S
C985        N986   1.361       .  A
C985        N990   1.357       .  A
N986        C987   1.352       .  A
C987        N988   1.377       .  A
N988        C989   1.372       .  A
C989        N990   1.348       .  A
C991       C1430   1.465       .  S
C991        N992   1.355       .  A
C991        N996   1.355       .  A
N992        C993   1.350       .  A
C993        N994   1.384       .  A
N994        C995   1.385   1_545  A
C995        N996   1.350   1_565  A
C997       C1390   1.459       .  S
C997        N998   1.358   1_554  A
C997       N1002   1.366       .  A
N998        C999   1.342       .  A
C999       N1000   1.365       .  A
N1000      C1001   1.366   1_556  A
C1001      N1002   1.354       .  A
C1003      C1090   1.461       .  S
C1003      N1004   1.356       .  A
C1003      N1008   1.362       .  A
N1004      C1005   1.345       .  A
C1005      N1006   1.376       .  A
N1006      C1007   1.373       .  A
C1007      N1008   1.354       .  A
C1009      C1510   1.455       .  S
C1009      N1010   1.360       .  A
C1009      N1014   1.361       .  A
N1010      C1011   1.347       .  A
C1011      N1012   1.367       .  A
N1012      C1013   1.364       .  A
C1013      N1014   1.348       .  A
C1015      C1401   1.460       .  S
C1015      N1016   1.355   1_556  A
C1015      N1020   1.351       .  A
N1016      C1017   1.351       .  A
C1017      N1018   1.384       .  A
N1018      C1019   1.384   1_554  A
C1019      N1020   1.345       .  A
C1021      C1370   1.464       .  S
C1021      N1022   1.365   1_565  A
C1021      N1026   1.361       .  A
N1022      C1023   1.354       .  A
C1023      N1024   1.363       .  A
N1024      C1025   1.364   1_545  A
C1025      N1026   1.348       .  A
C1027      C1490   1.460       .  S
C1027      N1028   1.358       .  A
C1027      N1032   1.362       .  A
N1028      C1029   1.349       .  A
C1029      N1030   1.376       .  A
N1030      C1031   1.373       .  A
C1031      N1032   1.353       .  A
C1033      C1290   1.446       .  S
C1033      N1034   1.364       .  A
C1033      N1038   1.360       .  A
N1034      C1035   1.353       .  A
C1035      N1036   1.368       .  A
N1036      C1037   1.368       .  A
C1037      N1038   1.345       .  A
C1039      C1250   1.456       .  S
C1039      N1040   1.357   1_454  A
C1039      N1044   1.350   1_554  A
N1040      C1041   1.354       .  A
C1041      N1042   1.386       .  A
N1042      C1043   1.384   1_655  A
C1043      N1044   1.344       .  A
C1045      C1201   1.466       .  S
C1045      N1046   1.361   1_545  A
C1045      N1050   1.360   1_544  A
N1046      C1047   1.354       .  A
C1047      N1048   1.374   1_554  A
N1048      C1049   1.370       .  A
C1049      N1050   1.350       .  A
C1051      C1221   1.460       .  S
C1051      N1052   1.353   1_455  A
C1051      N1056   1.355   1_445  A
N1052      C1053   1.349       .  A
C1053      N1054   1.384       .  A
N1054      C1055   1.384   1_545  A
C1055      N1056   1.349       .  A
C1057      H1067   1.083       .  S
C1057      C1058   1.398       .  A
C1057      C1062   1.389       .  A
C1058      C1063   1.451       .  S
C1058      C1059   1.399       .  A
C1059      H1064   1.084       .  S
C1059      C1060   1.384       .  A
C1060      H1065   1.083       .  S
C1060      C1061   1.401       .  A
C1061      C1062   1.405       .  A
C1062      H1066   1.083       .  S
C1063      C1068   1.399       .  A
C1063      C1072   1.398       .  A
C1068      H1073   1.084       .  S
C1068      C1069   1.387       .  A
C1069      H1074   1.083       .  S
C1069      C1070   1.403       .  A
C1070      C1071   1.403       .  A
C1071      H1075   1.083       .  S
C1071      C1072   1.387       .  A
C1072      H1076   1.084       .  S
C1077      H1087   1.084       .  S
C1077      C1078   1.398       .  A
C1077      C1082   1.386       .  A
C1078      C1083   1.452       .  S
C1078      C1079   1.398       .  A
C1079      H1084   1.083       .  S
C1079      C1080   1.390       .  A
C1080      H1085   1.083       .  S
C1080      C1081   1.405       .  A
C1081      C1082   1.404       .  A
C1082      H1086   1.083       .  S
C1083      C1088   1.396       .  A
C1083      C1092   1.400       .  A
C1088      H1093   1.083       .  S
C1088      C1089   1.389       .  A
C1089      H1094   1.083       .  S
C1089      C1090   1.407       .  A
C1090      C1091   1.401       .  A
C1091      H1095   1.083       .  S
C1091      C1092   1.387       .  A
C1092      H1096   1.084       .  S
C1097      H1107   1.083       .  S
C1097      C1098   1.398       .  A
C1097      C1102   1.387       .  A
C1098      C1103   1.455       .  S
C1098      C1099   1.401       .  A
C1099      H1104   1.083       .  S
C1099      C1100   1.387       .  A
C1100      H1105   1.083       .  S
C1100      C1101   1.402       .  A
C1101      C1102   1.405       .  A
C1102      H1106   1.083       .  S
C1103      C1108   1.401       .  A
C1103      C1112   1.399       .  A
C1108      H1113   1.083       .  S
C1108      C1109   1.387       .  A
C1109      H1114   1.083       .  S
C1109      C1110   1.402       .  A
C1110      C1111   1.403       .  A
C1111      H1115   1.083       .  S
C1111      C1112   1.387       .  A
C1112      H1116   1.083       .  S
C1117      H1127   1.084       .  S
C1117      C1118   1.398       .  A
C1117      C1122   1.387       .  A
C1118      C1123   1.453       .  S
C1118      C1119   1.401       .  A
C1119      H1124   1.084       .  S
C1119      C1120   1.388       .  A
C1120      H1125   1.083       .  S
C1120      C1121   1.400       .  A
C1121      C1122   1.404       .  A
C1122      H1126   1.083       .  S
C1123      C1128   1.399       .  A
C1123      C1132   1.398       .  A
C1128      H1133   1.084       .  S
C1128      C1129   1.387       .  A
C1129      H1134   1.083       .  S
C1129      C1130   1.403       .  A
C1130      C1131   1.406       .  A
C1131      H1135   1.083       .  S
C1131      C1132   1.388       .  A
C1132      H1136   1.083       .  S
C1137      H1147   1.083       .  S
C1137      C1138   1.401       .  A
C1137      C1142   1.390       .  A
C1138      C1143   1.459       .  S
C1138      C1139   1.400       .  A
C1139      H1144   1.083       .  S
C1139      C1140   1.385       .  A
C1140      H1145   1.083       .  S
C1140      C1141   1.402       .  A
C1141      C1142   1.402       .  A
C1142      H1146   1.083       .  S
C1143      C1148   1.403       .  A
C1143      C1152   1.398       .  A
C1148      H1153   1.083       .  S
C1148      C1149   1.392       .  A
C1149      H1154   1.083       .  S
C1149      C1150   1.402       .  A
C1150      C1151   1.404       .  A
C1151      H1155   1.083       .  S
C1151      C1152   1.383       .  A
C1152      H1156   1.083       .  S
C1157      H1167   1.083       .  S
C1157      C1158   1.400       .  A
C1157      C1162   1.388       .  A
C1158      C1163   1.460       .  S
C1158      C1159   1.402       .  A
C1159      H1164   1.083       .  S
C1159      C1160   1.390       .  A
C1160      H1165   1.083       .  S
C1160      C1161   1.401       .  A
C1161      C1162   1.403       .  A
C1162      H1166   1.083       .  S
C1163      C1168   1.399       .  A
C1163      C1172   1.401       .  A
C1168      H1173   1.083       .  S
C1168      C1169   1.388       .  A
C1169      H1174   1.083       .  S
C1169      C1170   1.405       .  A
C1170      C1171   1.402       .  A
C1171      H1175   1.083       .  S
C1171      C1172   1.389       .  A
C1172      H1176   1.083       .  S
C1177      H1187   1.083       .  S
C1177      C1178   1.396       .  A
C1177      C1182   1.391       .  A
C1178      C1183   1.453       .  S
C1178      C1179   1.400       .  A
C1179      H1184   1.084       .  S
C1179      C1180   1.388       .  A
C1180      H1185   1.083       .  S
C1180      C1181   1.401       .  A
C1181      C1182   1.408       .  A
C1182      H1186   1.083       .  S
C1183      C1188   1.398       .  A
C1183      C1192   1.397       .  A
C1188      H1193   1.084       .  S
C1188      C1189   1.386       .  A
C1189      H1194   1.083       .  S
C1189      C1190   1.404       .  A
C1190      C1191   1.407       .  A
C1191      H1195   1.083       .  S
C1191      C1192   1.393       .  A
C1192      H1196   1.083       .  S
C1197      H1207   1.083       .  S
C1197      C1198   1.400   1_556  A
C1197      C1202   1.391       .  A
C1198      C1203   1.465       .  S
C1198      C1199   1.402       .  A
C1199      H1204   1.083       .  S
C1199      C1200   1.391       .  A
C1200      H1205   1.083       .  S
C1200      C1201   1.403       .  A
C1201      C1202   1.405   1_554  A
C1202      H1206   1.083       .  S
C1203      C1208   1.400       .  A
C1203      C1212   1.403       .  A
C1208      H1213   1.083       .  S
C1208      C1209   1.393       .  A
C1209      H1214   1.083       .  S
C1209      C1210   1.406   1_554  A
C1210      C1211   1.401   1_556  A
C1211      H1215   1.083   1_554  S
C1211      C1212   1.389       .  A
C1212      H1216   1.083       .  S
C1217      H1227   1.083       .  S
C1217      C1218   1.398       .  A
C1217      C1222   1.389       .  A
C1218      C1223   1.453       .  S
C1218      C1219   1.400   1_545  A
C1219      H1224   1.084       .  S
C1219      C1220   1.386       .  A
C1220      H1225   1.083       .  S
C1220      C1221   1.403   1_565  A
C1221      C1222   1.405       .  A
C1222      H1226   1.083       .  S
C1223      C1228   1.401       .  A
C1223      C1232   1.398       .  A
C1228      H1233   1.083       .  S
C1228      C1229   1.390       .  A
C1229      H1234   1.083       .  S
C1229      C1230   1.401       .  A
C1230      C1231   1.403       .  A
C1231      H1235   1.083       .  S
C1231      C1232   1.384       .  A
C1232      H1236   1.084       .  S
C1237      H1247   1.083       .  S
C1237      C1238   1.399       .  A
C1237      C1242   1.387       .  A
C1238      C1243   1.457       .  S
C1238      C1239   1.401       .  A
C1239      H1244   1.083       .  S
C1239      C1240   1.388       .  A
C1240      H1245   1.083       .  S
C1240      C1241   1.403       .  A
C1241      C1242   1.404       .  A
C1242      H1246   1.083       .  S
C1243      C1248   1.403   1_455  A
C1243      C1252   1.398       .  A
C1248      H1253   1.083       .  S
C1248      C1249   1.389       .  A
C1249      H1254   1.083       .  S
C1249      C1250   1.400   1_655  A
C1250      C1251   1.404       .  A
C1251      H1255   1.083       .  S
C1251      C1252   1.386       .  A
C1252      H1256   1.083       .  S
C1257      H1267   1.083       .  S
C1257      C1258   1.401       .  A
C1257      C1262   1.389       .  A
C1258      C1263   1.457       .  S
C1258      C1259   1.399       .  A
C1259      H1264   1.083       .  S
C1259      C1260   1.387       .  A
C1260      H1265   1.083       .  S
C1260      C1261   1.403       .  A
C1261      C1262   1.402       .  A
C1262      H1266   1.083       .  S
C1263      C1268   1.398       .  A
C1263      C1272   1.402       .  A
C1268      H1273   1.083       .  S
C1268      C1269   1.387       .  A
C1269      H1274   1.083       .  S
C1269      C1270   1.405       .  A
C1270      C1271   1.401       .  A
C1271      H1275   1.083       .  S
C1271      C1272   1.390       .  A
C1272      H1276   1.083       .  S
C1277      H1287   1.083       .  S
C1277      C1278   1.398       .  A
C1277      C1282   1.387       .  A
C1278      C1283   1.453       .  S
C1278      C1279   1.399       .  A
C1279      H1284   1.084       .  S
C1279      C1280   1.386       .  A
C1280      H1285   1.083       .  S
C1280      C1281   1.403       .  A
C1281      C1282   1.405       .  A
C1282      H1286   1.083       .  S
C1283      C1288   1.403       .  A
C1283      C1292   1.398       .  A
C1288      H1293   1.084       .  S
C1288      C1289   1.387       .  A
C1289      H1294   1.083       .  S
C1289      C1290   1.397       .  A
C1290      C1291   1.402       .  A
C1291      H1295   1.084       .  S
C1291      C1292   1.387       .  A
C1292      H1296   1.083       .  S
C1297      H1307   1.084       .  S
C1297      C1298   1.402       .  A
C1297      C1302   1.387       .  A
C1298      C1303   1.449       .  S
C1298      C1299   1.395   1_655  A
C1299      H1304   1.084       .  S
C1299      C1300   1.383       .  A
C1300      H1305   1.083       .  S
C1300      C1301   1.405   1_455  A
C1301      C1302   1.399       .  A
C1302      H1306   1.083       .  S
C1303      C1308   1.397       .  A
C1303      C1312   1.399   1_655  A
C1308      H1313   1.084       .  S
C1308      C1309   1.385       .  A
C1309      H1314   1.083       .  S
C1309      C1310   1.405       .  A
C1310      C1311   1.403   1_655  A
C1311      H1315   1.083       .  S
C1311      C1312   1.386       .  A
C1312      H1316   1.084       .  S
C1317      H1327   1.083   1_655  S
C1317      C1318   1.399       .  A
C1317      C1322   1.388       .  A
C1318      C1323   1.460       .  S
C1318      C1319   1.403       .  A
C1319      H1324   1.083       .  S
C1319      C1320   1.390       .  A
C1320      H1325   1.083       .  S
C1320      C1321   1.402       .  A
C1321      C1322   1.404       .  A
C1322      H1326   1.083   1_655  S
C1323      C1328   1.401       .  A
C1323      C1332   1.401       .  A
C1328      H1333   1.083       .  S
C1328      C1329   1.392       .  A
C1329      H1334   1.083   1_655  S
C1329      C1330   1.405   1_655  A
C1330      C1331   1.401       .  A
C1331      H1335   1.083       .  S
C1331      C1332   1.385   1_455  A
C1332      H1336   1.084       .  S
C1337      H1347   1.083       .  S
C1337      C1338   1.400       .  A
C1337      C1342   1.389       .  A
C1338      C1343   1.461       .  S
C1338      C1339   1.401       .  A
C1339      H1344   1.083   1_455  S
C1339      C1340   1.390       .  A
C1340      H1345   1.083   1_455  S
C1340      C1341   1.404       .  A
C1341      C1342   1.405       .  A
C1342      H1346   1.083       .  S
C1343      C1348   1.402       .  A
C1343      C1352   1.401   1_455  A
C1348      H1353   1.083       .  S
C1348      C1349   1.393       .  A
C1349      H1354   1.083       .  S
C1349      C1350   1.403       .  A
C1350      C1351   1.401   1_455  A
C1351      H1355   1.083       .  S
C1351      C1352   1.387       .  A
C1352      H1356   1.083       .  S
C1357      H1367   1.083       .  S
C1357      C1358   1.398       .  A
C1357      C1362   1.390       .  A
C1358      C1363   1.460       .  S
C1358      C1359   1.402       .  A
C1359      H1364   1.083       .  S
C1359      C1360   1.389       .  A
C1360      H1365   1.083   1_565  S
C1360      C1361   1.401       .  A
C1361      C1362   1.406       .  A
C1362      H1366   1.083       .  S
C1363      C1368   1.401   1_565  A
C1363      C1372   1.399       .  A
C1368      H1373   1.083       .  S
C1368      C1369   1.391       .  A
C1369      H1374   1.083       .  S
C1369      C1370   1.403   1_545  A
C1370      C1371   1.404       .  A
C1371      H1375   1.083       .  S
C1371      C1372   1.388       .  A
C1372      H1376   1.083       .  S
C1377      H1387   1.084       .  S
C1377      C1378   1.396       .  A
C1377      C1382   1.386       .  A
C1378      C1383   1.448       .  S
C1378      C1379   1.400   1_554  A
C1379      H1384   1.084       .  S
C1379      C1380   1.387       .  A
C1380      H1385   1.083       .  S
C1380      C1381   1.401   1_556  A
C1381      C1382   1.404       .  A
C1382      H1386   1.083       .  S
C1383      C1388   1.400       .  A
C1383      C1392   1.395       .  A
C1388      H1393   1.084       .  S
C1388      C1389   1.388       .  A
C1389      H1394   1.083       .  S
C1389      C1390   1.402       .  A
C1390      C1391   1.407       .  A
C1391      H1395   1.083   1_554  S
C1391      C1392   1.385       .  A
C1392      H1396   1.084   1_554  S
C1397      H1407   1.084       .  S
C1397      C1398   1.400   1_554  A
C1397      C1402   1.388       .  A
C1398      C1403   1.451       .  S
C1398      C1399   1.397       .  A
C1399      H1404   1.084       .  S
C1399      C1400   1.385       .  A
C1400      H1405   1.083       .  S
C1400      C1401   1.406       .  A
C1401      C1402   1.403   1_556  A
C1402      H1406   1.083       .  S
C1403      C1408   1.398       .  A
C1403      C1412   1.400       .  A
C1408      H1413   1.083       .  S
C1408      C1409   1.388       .  A
C1409      H1414   1.083   1_556  S
C1409      C1410   1.403       .  A
C1410      C1411   1.400       .  A
C1411      H1415   1.083       .  S
C1411      C1412   1.386       .  A
C1412      H1416   1.084       .  S
C1417      H1427   1.083       .  S
C1417      C1418   1.400       .  A
C1417      C1422   1.390       .  A
C1418      C1423   1.460       .  S
C1418      C1419   1.403       .  A
C1419      H1424   1.083   1_545  S
C1419      C1420   1.388       .  A
C1420      H1425   1.083   1_545  S
C1420      C1421   1.399       .  A
C1421      C1422   1.404       .  A
C1422      H1426   1.083       .  S
C1423      C1428   1.400       .  A
C1423      C1432   1.400       .  A
C1428      H1433   1.083       .  S
C1428      C1429   1.388       .  A
C1429      H1434   1.083       .  S
C1429      C1430   1.404       .  A
C1430      C1431   1.404       .  A
C1431      H1435   1.083   1_545  S
C1431      C1432   1.389       .  A
C1432      H1436   1.083       .  S
C1437      H1447   1.084       .  S
C1437      C1438   1.396   1_545  A
C1437      C1442   1.384       .  A
C1438      C1443   1.450       .  S
C1438      C1439   1.401       .  A
C1439      H1444   1.083       .  S
C1439      C1440   1.390       .  A
C1440      H1445   1.083       .  S
C1440      C1441   1.401       .  A
C1441      C1442   1.403   1_565  A
C1442      H1446   1.083       .  S
C1443      C1448   1.400   1_565  A
C1443      C1452   1.395       .  A
C1448      H1453   1.084       .  S
C1448      C1449   1.387       .  A
C1449      H1454   1.083       .  S
C1449      C1450   1.403   1_545  A
C1450      C1451   1.407       .  A
C1451      H1455   1.083       .  S
C1451      C1452   1.386       .  A
C1452      H1456   1.084       .  S
C1457      H1467   1.083       .  S
C1457      C1458   1.402       .  A
C1457      C1462   1.391       .  A
C1458      C1463   1.458       .  S
C1458      C1459   1.400       .  A
C1459      H1464   1.083       .  S
C1459      C1460   1.384       .  A
C1460      H1465   1.083       .  S
C1460      C1461   1.400       .  A
C1461      C1462   1.401       .  A
C1462      H1466   1.083       .  S
C1463      C1468   1.401       .  A
C1463      C1472   1.399       .  A
C1468      H1473   1.083       .  S
C1468      C1469   1.390       .  A
C1469      H1474   1.083       .  S
C1469      C1470   1.403       .  A
C1470      C1471   1.403       .  A
C1471      H1475   1.083       .  S
C1471      C1472   1.384       .  A
C1472      H1476   1.083       .  S
C1477      H1487   1.083       .  S
C1477      C1478   1.397       .  A
C1477      C1482   1.388       .  A
C1478      C1483   1.460       .  S
C1478      C1479   1.403       .  A
C1479      H1484   1.083       .  S
C1479      C1480   1.391       .  A
C1480      H1485   1.083       .  S
C1480      C1481   1.401       .  A
C1481      C1482   1.408       .  A
C1482      H1486   1.083       .  S
C1483      C1488   1.402       .  A
C1483      C1492   1.400       .  A
C1488      H1493   1.083       .  S
C1488      C1489   1.389       .  A
C1489      H1494   1.083       .  S
C1489      C1490   1.402       .  A
C1490      C1491   1.404       .  A
C1491      H1495   1.083       .  S
C1491      C1492   1.389       .  A
C1492      H1496   1.083       .  S
C1497      H1507   1.084       .  S
C1497      C1498   1.399       .  A
C1497      C1502   1.384       .  A
C1498      C1503   1.448       .  S
C1498      C1499   1.397       .  A
C1499      H1504   1.083       .  S
C1499      C1500   1.387       .  A
C1500      H1505   1.083       .  S
C1500      C1501   1.404       .  A
C1501      C1502   1.401       .  A
C1502      H1506   1.083       .  S
C1503      C1508   1.398       .  A
C1503      C1512   1.398       .  A
C1508      H1513   1.084       .  S
C1508      C1509   1.385       .  A
C1509      H1514   1.083       .  S
C1509      C1510   1.403       .  A
C1510      C1511   1.403       .  A
C1511      H1515   1.083       .  S
C1511      C1512   1.385       .  A
C1512      H1516   1.084       .  S
C1517      H1527   1.084       .  S
C1517      C1518   1.400       .  A
C1517      C1522   1.385       .  A
C1518      C1523   1.458       .  S
C1518      C1519   1.402       .  A
C1519      H1524   1.083       .  S
C1519      C1520   1.394       .  A
C1520      H1525   1.083       .  S
C1520      C1521   1.402       .  A
C1521      C1522   1.400       .  A
C1522      H1526   1.084       .  S
C1523      C1528   1.402       .  A
C1523      C1532   1.397       .  A
C1528      H1533   1.083       .  S
C1528      C1529   1.393       .  A
C1529      H1534   1.083   1_556  S
C1529      C1530   1.404       .  A
C1530      C1531   1.406       .  A
C1531      H1535   1.083       .  S
C1531      C1532   1.385       .  A
C1532      H1536   1.084       .  S
