geometry optimzed in LAMMPS
_audit_creation_date              2020-11-30 
_audit_creation_method            'lammps2cif' 
_symmetry_space_group_name_H-M    'P1' 
_symmetry_Int_Tables_number       1 
_symmetry_cell_setting            triclinic 
loop_ 
_symmetry_equiv_pos_as_xyz 
  x,y,z 
_cell_length_a                    37.711094784530644 
_cell_length_b                    37.46123088372317 
_cell_length_c                    37.262117117219304 
_cell_angle_alpha                 91.01648413279214 
_cell_angle_beta                  91.16515144529178 
_cell_angle_gamma                 94.63731129322503 
loop_ 
_atom_site_label 
_atom_site_type_symbol 
_atom_site_fract_x 
_atom_site_fract_y 
_atom_site_fract_z 
_atom_site_charge 
C1          C  0.50956221  0.13268787  0.23640830    -0.02600
O2          O  0.45811604  0.06232650  0.39628145    -0.86600
O3          O  0.12307220  0.47372074  0.45655764    -0.86770
O4          O  0.07617453  0.08524350  0.42025660    -0.88440
O5          O  0.04272605  0.47945813  0.36361318    -0.87190
O6          O  0.00485540  0.43163495  0.37939359    -0.86780
O7          O  0.07423205  0.10595774  0.47865777    -0.88150
O8          O  0.10861408  0.50738425  0.40838352    -0.86630
O9          O  0.01193320  0.04984685  0.37327765    -0.86220
Zr10       Zr  0.04780557  0.02205629  0.41588262     2.84310
O11         O  0.04627018  0.46400760  0.43819574    -1.08190
O12         O  0.01551188  0.05767077  0.45331259    -1.08920
C13         C  0.98198433  0.06380058  0.37169583     1.06510
C14         C  0.13043802  0.48937846  0.42629830     1.06450
C15         C  0.08219295  0.10967957  0.44560371     1.09430
C16         C  0.02544802  0.44846127  0.35697445     1.07210
H17         H  0.09695618  0.03634842  0.47239149     0.32770
O18         O  0.07270749  0.02608776  0.47369748    -1.29150
H19         H  0.47764006  0.49570870  0.39460277     0.32440
O20         O  0.98855898  0.49771576  0.41828490    -1.30830
O21         O  0.06792997  0.44565495  0.05851881    -0.86600
O22         O  0.40299439  0.02799796  0.49427500    -0.88090
O23         O  0.10081990  0.05749591  0.03933350    -0.86670
O24         O  0.02283804  0.38686782  0.44622373    -0.86720
O25         O  0.42709234  0.44318976  0.41238155    -0.86440
O26         O  0.00690009  0.11530001  0.00373957    -0.86240
O27         O  0.48703254  0.02117057  0.08988152    -0.86610
O28         O  0.44826744  0.41815055  0.03191297    -0.86070
O29         O  0.02496024  0.06866057  0.07348249    -0.87140
O30         O  0.45111201  0.39760341  0.47350394    -0.86300
O31         O  0.11611643  0.50020454  0.02846083    -0.86690
O32         O  0.45675541  0.09634892  0.47065996    -0.86420
O33         O  0.41099369  0.49996559  0.42444357    -0.86070
O34         O  0.07080559  0.40656124  0.48201120    -0.86470
O35         O  0.01080106  0.44970824  0.07722137    -0.86770
O36         O  0.41762675  0.49471076  0.04258187    -0.88110
Zr37       Zr  0.07002390  0.46836743  0.49635893     2.83100
Zr38       Zr  0.45648969  0.03406271  0.45577849     2.83500
Zr39       Zr  0.04048004  0.06163097  0.01141155     2.84090
Zr40       Zr  0.98704111  0.43995996  0.44080026     2.83360
Zr41       Zr  0.47814700  0.48034381  0.03557642     2.84220
O42         O  0.45412713  0.47613283  0.47756127    -1.08680
O43         O  0.03758815  0.50391741  0.03365976    -1.08180
C44         C  0.04297962  0.44236543  0.08203952     1.06480
C45         C  0.39567691  0.01209037  0.02430103     1.09100
C46         C  0.12212681  0.03189649  0.04122128     1.06650
C47         C  0.05268083  0.38240320  0.46304940     1.07010
C48         C  0.40542746  0.46844428  0.41100035     1.06590
C49         C  0.47752533  0.12075954  0.48658671     1.06150
C50         C  0.00548296  0.05164760  0.09666059     1.06570
C51         C  0.44245066  0.39402716  0.00636325     1.06080
H52         H  0.46703230  0.05378946  0.02877513     0.32760
O53         O  0.48057325  0.03867696  0.01395658    -1.29780
H54         H  0.01145538  0.42061143  0.00948263     0.32790
O55         O  0.01131082  0.44406238  0.49920232    -1.31160
C56         C  0.25831287  0.00518447  0.09858129    -0.02600
O57         O  0.18121781  0.18917851  0.28072724    -0.86600
O58         O  0.24747577  0.27577529  0.11051101    -0.86770
O59         O  0.15327193  0.25853890  0.19413699    -0.88440
O60         O  0.20918117  0.16342671  0.16055309    -0.87190
O61         O  0.26464929  0.14555983  0.17436645    -0.86780
O62         O  0.17354062  0.30532546  0.23091780    -0.88150
O63         O  0.19937189  0.23873475  0.12662792    -0.86630
O64         O  0.16323158  0.18892603  0.22126110    -0.86220
Zr65       Zr  0.20641024  0.22335825  0.18888097     2.84310
O66         O  0.26422922  0.22328655  0.16833003    -1.08190
O67         O  0.21005015  0.24854458  0.24676669    -1.08920
C68         C  0.15818269  0.18257322  0.25443120     1.06510
C69         C  0.21672482  0.25822331  0.10367672     1.06450
C70         C  0.14905597  0.28783746  0.21215328     1.09430
C71         C  0.23365606  0.14102309  0.15995292     1.07210
H72         H  0.21631585  0.29656851  0.17029141     0.32770
O73         O  0.23095914  0.28269149  0.18532267    -1.29150
H74         H  0.22914578  0.16592813  0.22957588     0.32440
O75         O  0.24002086  0.19008156  0.22816686    -1.30830
O76         O  0.35175253  0.31179724  0.16775195    -0.86600
O77         O  0.28475428  0.22402110  0.33991326    -0.88090
O78         O  0.24112166  0.35969537  0.20333967    -0.86670
O79         O  0.32602788  0.18947838  0.14844566    -0.86720
O80         O  0.28992368  0.13770080  0.24786845    -0.86440
O81         O  0.20981111  0.30766920  0.30370375    -0.86240
O82         O  0.32300687  0.33617388  0.28882920    -0.86610
O83         O  0.37869419  0.24125857  0.25499473    -0.86070
O84         O  0.26783198  0.35391510  0.27390291    -0.87140
O85         O  0.35927133  0.18949917  0.22431514    -0.86300
O86         O  0.27469100  0.34399666  0.15577850    -0.86690
O87         O  0.21381737  0.25112471  0.32573872    -0.86420
O88         O  0.25636416  0.15433817  0.29498266    -0.86070
O89         O  0.31292468  0.24221135  0.12249912    -0.86470
O90         O  0.36981638  0.30926985  0.22692262    -0.86770
O91         O  0.33297700  0.26039399  0.32291978    -0.88110
Zr92       Zr  0.28889955  0.28250750  0.16389346     2.83100
Zr93       Zr  0.24412993  0.21575076  0.28566114     2.83500
Zr94       Zr  0.23524084  0.30701988  0.24325872     2.84090
Zr95       Zr  0.29788644  0.19040712  0.20764183     2.83360
Zr96       Zr  0.32629911  0.27566222  0.26048167     2.84220
O97         O  0.30233038  0.21600363  0.26510629    -1.08680
O98         O  0.29255034  0.30839289  0.22150456    -1.08180
C99         C  0.37478861  0.31835341  0.19427694     1.06480
C100        C  0.31558973  0.24161400  0.34640829     1.09100
C101        C  0.25716493  0.36653419  0.17335803     1.06650
C102        C  0.32681058  0.21201756  0.12246163     1.07010
C103        C  0.27354776  0.13136311  0.27782223     1.06590
C104        C  0.20590953  0.28361721  0.32818644     1.06150
C105        C  0.29838995  0.35858573  0.28915558     1.06570
C106        C  0.38363150  0.21106964  0.23921404     1.06080
H107        H  0.27135223  0.28624168  0.30576171     0.32760
O108        O  0.26934185  0.27488824  0.28228494    -1.29780
H109        H  0.34598767  0.24859560  0.19294145     0.32790
O110        O  0.32261424  0.24934066  0.20284669    -1.31160
C111        C  0.13924544  0.25900033  0.46218506    -0.02600
C112        C  0.02434530  0.37051666  0.21646147    -0.02600
C113        C  0.39262982  0.24419441  0.48839686    -0.02600
C114        C  0.26872318  0.49257225  0.35224493    -0.02600
C115        C  0.15854355  0.26849050  0.42673605    -0.05580
C116        C  0.19551012  0.26816397  0.42322004    -0.33010
C117        C  0.21233601  0.28186812  0.39294058     0.36240
C118        C  0.19206594  0.29162202  0.36306297    -0.05940
C119        C  0.15540979  0.29105643  0.36526477    -0.32910
C120        C  0.13845596  0.27867646  0.39600405     0.36150
H121        H  0.21174611  0.25601855  0.44296110     0.16520
O122        O  0.24847416  0.28065405  0.39053395    -0.60400
H123        H  0.13949145  0.29647429  0.34170679     0.16530
O124        O  0.10196901  0.27666264  0.39560001    -0.60500
H125        H  0.09416551  0.25702551  0.37827724     0.43530
H126        H  0.25862881  0.30531066  0.39661407     0.43480
C127        C  0.16138748  0.25987777  0.99873519    -0.05580
C128        C  0.19537452  0.27875510  0.00492423    -0.33010
C129        C  0.21400881  0.27818277  0.03810995     0.36240
C130        C  0.19861538  0.25994802  0.06736159    -0.05940
C131        C  0.16401956  0.24311756  0.06217226    -0.32910
C132        C  0.14549185  0.24358281  0.02918950     0.36150
H133        H  0.20812209  0.29524618  0.48486702     0.16520
O134        O  0.24697420  0.29638603  0.04162833    -0.60400
H135        H  0.15053105  0.22954460  0.08406941     0.16530
O136        O  0.11148911  0.22750068  0.02707117    -0.60500
H137        H  0.09637241  0.24498073  0.03811716     0.43530
H138        H  0.26388508  0.27935316  0.03300081     0.43480
C139        C  0.36890599  0.24346927  0.45280702    -0.05580
C140        C  0.38655000  0.25487728  0.42142954    -0.33010
C141        C  0.37012634  0.25251289  0.38745153     0.36240
C142        C  0.33348768  0.24127561  0.38310868    -0.05940
C143        C  0.31454600  0.23259782  0.41440523    -0.32910
C144        C  0.33150687  0.23415104  0.44899711     0.36150
H145        H  0.41463431  0.26374987  0.42306497     0.16520
O146        O  0.39085923  0.26106582  0.35850380    -0.60400
H147        H  0.28613298  0.22565818  0.41229751     0.16530
O148        O  0.31062950  0.23064138  0.47869710    -0.60500
H149        H  0.29397333  0.20903713  0.47441602     0.43510
H150        H  0.39989102  0.23816094  0.35046758     0.43480
C151        C  0.35016513  0.20885964  0.09192725    -0.05580
C152        C  0.34091544  0.18768389  0.06119268    -0.33010
C153        C  0.35511033  0.19766460  0.02744234     0.36240
C154        C  0.37374290  0.23203206  0.02354924    -0.05940
C155        C  0.38282579  0.25172843  0.05575423    -0.32910
C156        C  0.37464182  0.23850830  0.08899076     0.36150
H157        H  0.32256825  0.16405791  0.06322328     0.16520
O158        O  0.35161200  0.17385097  0.99881202    -0.60400
H159        H  0.39947703  0.27653372  0.05663373     0.16530
O160        O  0.38641288  0.25823253  0.11890907    -0.60500
H161        H  0.40438544  0.24403937  0.13051515     0.43530
H162        H  0.32672044  0.16302484  0.99844337     0.43480
C163        C  0.30128083  0.39196367  0.30995692    -0.05580
C164        C  0.27714808  0.39254591  0.33787358    -0.33010
C165        C  0.26071726  0.42341090  0.34689126     0.36240
C166        C  0.27084353  0.45679626  0.33043221    -0.05940
C167        C  0.29626419  0.45567290  0.30280300    -0.32910
C168        C  0.31086480  0.42392975  0.29246295     0.36150
H169        H  0.26793501  0.36763825  0.35039569     0.16520
O170        O  0.23662847  0.42064859  0.37397526    -0.60400
H171        H  0.30676560  0.47994059  0.29028746     0.16530
O172        O  0.33320076  0.42404807  0.26389291    -0.60500
H173        H  0.35711216  0.43182181  0.27414567     0.43530
H174        H  0.21438835  0.40922180  0.36270655     0.43480
C175        C  0.27377297  0.09552971  0.29491501    -0.05580
C176        C  0.26475511  0.06353700  0.27535262    -0.33010
C177        C  0.26039421  0.03015899  0.29269910     0.36240
C178        C  0.26769094  0.02783141  0.33025313    -0.05940
C179        C  0.27463609  0.06052040  0.34955805    -0.32910
C180        C  0.27807565  0.09356476  0.33248546     0.36150
H181        H  0.25927984  0.06457061  0.24675040     0.16520
O182        O  0.24767532  0.00060597  0.27274775    -0.60400
H183        H  0.27909296  0.06033042  0.37832244     0.16530
O184        O  0.28584773  0.12404687  0.35306196    -0.60500
H185        H  0.31216899  0.12808956  0.35329102     0.43530
H186        H  0.22189532  0.00314457  0.26905630     0.43480
C187        C  0.48454752  0.35627847  0.20777079    -0.05580
C188        C  0.45669978  0.37253907  0.22522631    -0.33010
C189        C  0.42091180  0.36423531  0.21626789     0.36240
C190        C  0.41048682  0.33780130  0.19013399    -0.05940
C191        C  0.43730288  0.32350722  0.17006052    -0.32910
C192        C  0.47394101  0.33340922  0.17772389     0.36150
H193        H  0.46201321  0.39314067  0.24568984     0.16520
O194        O  0.39577835  0.38044929  0.23545394    -0.60400
H195        H  0.43010581  0.30377166  0.14920297     0.16530
O196        O  0.49909278  0.32183994  0.15499836    -0.60500
H197        H  0.49246411  0.29613492  0.14949494     0.43530
H198        H  0.38908039  0.40048895  0.22036617     0.43480
C199        C  0.11517955  0.30564454  0.21224954    -0.05580
C200        C  0.08112860  0.28718001  0.21151999    -0.33010
C201        C  0.04999232  0.30583769  0.21637742     0.36240
C202        C  0.05338079  0.34363560  0.22119898    -0.05940
C203        C  0.08802781  0.36049814  0.22553071    -0.32910
C204        C  0.11783790  0.34296664  0.21876167     0.36150
H205        H  0.07889526  0.25851356  0.20739208     0.16520
O206        O  0.01730408  0.28710456  0.21877201    -0.60400
H207        H  0.09222474  0.38924776  0.22927518     0.16530
O208        O  0.14963195  0.36345754  0.21620807    -0.60500
H209        H  0.15633149  0.37166114  0.24108647     0.43530
H210        H  0.01592817  0.26832430  0.19958856     0.43480
C211        C  0.25883747  0.46956549  0.12013652    -0.05580
C212        C  0.26567491  0.46791593  0.15763114    -0.33010
C213        C  0.26281160  0.43500353  0.17585358     0.36240
C214        C  0.25560026  0.40240236  0.15658845    -0.05940
C215        C  0.25076402  0.40372694  0.11926466    -0.32910
C216        C  0.25236076  0.43631633  0.10121550     0.36150
H217        H  0.27390931  0.49189446  0.17313951     0.16520
O218        O  0.26911922  0.43494569  0.21220807    -0.60400
H219        H  0.24569181  0.37905553  0.10369292     0.16530
O220        O  0.24640856  0.43536084  0.06475669    -0.60500
H221        H  0.26801192  0.42618657  0.05439725     0.43530
H222        H  0.24563018  0.43744065  0.22306391     0.43480
C223        C  0.25701814  0.04157892  0.11940078    -0.05580
C224        C  0.23511246  0.04384227  0.14977670    -0.33010
C225        C  0.22210628  0.07608581  0.16077527     0.36240
C226        C  0.22913125  0.10707132  0.14081251    -0.05940
C227        C  0.24983539  0.10550205  0.11046906    -0.32910
C228        C  0.26496557  0.07420491  0.10049198     0.36150
H229        H  0.22591645  0.02044451  0.16434610     0.16520
O230        O  0.20465466  0.07768333  0.19264660    -0.60400
H231        H  0.25769248  0.12997041  0.09647814     0.16530
O232        O  0.28765867  0.07602580  0.07200066    -0.60500
H233        H  0.27509879  0.08707034  0.05189114     0.43530
H234        H  0.17905810  0.07303865  0.18613375     0.43480
C235        C  0.04918476  0.42983406  0.11841180    -0.05580
C236        C  0.02882938  0.44434524  0.14548555    -0.33010
C237        C  0.01984044  0.42539830  0.17615944     0.36240
C238        C  0.03515204  0.39313540  0.18310122    -0.05940
C239        C  0.05737563  0.37978454  0.15602711    -0.32910
C240        C  0.06459319  0.39796439  0.12438109     0.36150
H241        H  0.01597851  0.46859082  0.14051218     0.16520
O242        O  0.99320064  0.43666267  0.19706312    -0.60400
H243        H  0.06751177  0.35368966  0.15760682     0.16530
O244        O  0.08297573  0.38213429  0.09787304    -0.60500
H245        H  0.10821317  0.39101600  0.10222358     0.43530
H246        H  0.00355865  0.45818920  0.21042734     0.43480
C247        C  0.02717512  0.39199729  0.25336974    -0.05580
C248        C  0.04289174  0.42759610  0.25763967    -0.33010
C249        C  0.04275992  0.44653723  0.29070044     0.36240
C250        C  0.02867242  0.42959684  0.32137810    -0.05940
C251        C  0.01656847  0.39307065  0.31806171    -0.32910
C252        C  0.01598544  0.37445862  0.28507092     0.36150
H253        H  0.05575471  0.44114738  0.23548331     0.16520
O254        O  0.05653591  0.48155145  0.29250043    -0.60400
H255        H  0.00704786  0.37847328  0.34126932     0.16530
O256        O  0.00442306  0.33872437  0.28399222    -0.60500
H257        H  0.47852372  0.33763945  0.28846721     0.43530
H258        H  0.03652610  0.49577699  0.28546780     0.43480
C259        C  0.23373009  0.49173076  0.37454558    -0.05580
C260        C  0.20126226  0.48362462  0.35542639    -0.33010
C261        C  0.16828013  0.48138021  0.37232243     0.36240
C262        C  0.16617014  0.48726549  0.40967465    -0.05940
C263        C  0.19805778  0.49631745  0.42917877    -0.32910
C264        C  0.23135426  0.49981803  0.41194730     0.36150
H265        H  0.20146742  0.97821620  0.32681472     0.16520
O266        O  0.13800081  0.47258049  0.35193648    -0.60400
H267        H  0.19702763  0.50271105  0.45758550     0.16530
O268        O  0.26077397  0.51270238  0.43180928    -0.60500
H269        H  0.25782411  0.53846459  0.43622695     0.43530
H270        H  0.13294310  0.99486717  0.33946204     0.43480
C271        C  0.37141203  0.46468762  0.39164395    -0.05580
C272        C  0.36881488  0.48918476  0.36415153    -0.33010
C273        C  0.33717746  0.00450138  0.35652527     0.36240
C274        C  0.30484878  0.49228265  0.37352979    -0.05940
C275        C  0.30797804  0.46651203  0.40078738    -0.32910
C276        C  0.34064880  0.45329462  0.41002624     0.36150
H277        H  0.39272039  0.99965927  0.35093195     0.16520
O278        O  0.33826271  0.02948962  0.33003759    -0.60400
H279        H  0.28463479  0.45474847  0.41379316     0.16530
O280        O  0.34256771  0.43056761  0.43832682    -0.60500
H281        H  0.33958749  0.40613335  0.42743839     0.43530
H282        H  0.34916585  0.05192625  0.34157534     0.43480
C283        C  0.15677373  0.03573587  0.05923792    -0.05580
C284        C  0.15924566  0.01429108  0.08924562    -0.33010
C285        C  0.19001967  0.99751085  0.09714817     0.36240
C286        C  0.22198230  0.00559098  0.07776960    -0.05940
C287        C  0.21893711  0.02778364  0.04753434    -0.32910
C288        C  0.18687693  0.04203148  0.03804766     0.36150
H289        H  0.13558722  0.00703397  0.10446283     0.16520
O290        O  0.18894570  0.97538269  0.12609832    -0.60400
H291        H  0.24165480  0.03624844  0.03191330     0.16530
O292        O  0.18446186  0.06019183  0.50655041    -0.60500
H293        H  0.19040706  0.08574392  0.51322038     0.43530
H294        H  0.17815747  0.95194447  0.11675159     0.43480
C295        C  0.35994128  0.01329509  0.04049005    -0.05580
C296        C  0.35854205  0.01895536  0.07768439    -0.33010
C297        C  0.32641318  0.01511981  0.09586240     0.36240
C298        C  0.29362422  0.00622145  0.07706280    -0.05940
C299        C  0.29541287  0.99890316  0.03970690    -0.32910
C300        C  0.32794547  0.00320453  0.02145480     0.36150
H301        H  0.38288580  0.02590465  0.09311431     0.16520
O302        O  0.32725855  0.02143586  0.13226582    -0.60400
H303        H  0.27188234  0.98904768  0.02442301     0.16530
O304        O  0.32832229  0.99519041  0.48543990    -0.60500
H305        H  0.32603535  0.01829760  0.47337636     0.43530
H306        H  0.33631961  0.99976388  0.14289839     0.43480
C307        C  0.42295167  0.21751729  0.48483781    -0.05580
C308        C  0.42352582  0.19403886  0.45464624    -0.33010
C309        C  0.44483811  0.16544234  0.45360372     0.36240
C310        C  0.46511999  0.15717619  0.48394848    -0.05940
C311        C  0.46789663  0.18131238  0.01297714    -0.32910
C312        C  0.44741990  0.21120672  0.01375937     0.36150
H313        H  0.40575482  0.19512368  0.43184977     0.16520
O314        O  0.44450542  0.14456350  0.42284730    -0.60400
H315        H  0.48410391  0.17580242  0.03626433     0.16530
O316        O  0.45085800  0.23325090  0.04363774    -0.60500
H317        H  0.44462613  0.21790615  0.06439892     0.43530
H318        H  0.42083321  0.13088808  0.42171488     0.43480
C319        C  0.42837832  0.35722228  0.01352510    -0.05580
C320        C  0.39260140  0.34704221  0.50574389    -0.33010
C321        C  0.38127011  0.31127270  0.49694309     0.36240
C322        C  0.40624919  0.28470559  0.49351263    -0.05940
C323        C  0.44240583  0.29598749  0.00013960    -0.32910
C324        C  0.45290185  0.33095322  0.01242077     0.36150
H325        H  0.37350879  0.36716052  0.50505880     0.16520
O326        O  0.34544224  0.30238914  0.49250458    -0.60400
H327        H  0.46285237  0.27780969  0.99683145     0.16530
O328        O  0.48806657  0.34024951  0.02073830    -0.60500
H329        H  0.49047267  0.33659470  0.04693930     0.43530
H330        H  0.33893942  0.31193329  0.46880327     0.43480
C331        C  0.09818239  0.14611443  0.43813604    -0.05580
C332        C  0.13370237  0.15500986  0.44838602    -0.33010
C333        C  0.14655885  0.19072509  0.45593400     0.36240
C334        C  0.12374865  0.21932100  0.45372313    -0.05940
C335        C  0.08901478  0.20997430  0.43967417    -0.32910
C336        C  0.07589029  0.17409562  0.43349059     0.36150
H337        H  0.15113382  0.13384189  0.45301605     0.16520
O338        O  0.18177406  0.19725262  0.96580304    -0.60400
H339        H  0.07120321  0.22981377  0.43278365     0.16530
O340        O  0.04020688  0.16637813  0.42624394    -0.60500
H341        H  0.03477149  0.17969426  0.40428986     0.43530
H342        H  0.18383235  0.18814621  0.99053680     0.43480
C343        C  0.07100742  0.34888816  0.46038555    -0.05580
C344        C  0.10808163  0.35381690  0.45944700    -0.33010
C345        C  0.12938162  0.32585041  0.46398018     0.36240
C346        C  0.11422407  0.29003265  0.46755004    -0.05940
C347        C  0.07687767  0.28555504  0.47186011    -0.32910
C348        C  0.05526257  0.31420536  0.46619635     0.36150
H349        H  0.12124276  0.38030728  0.45575319     0.16520
O350        O  0.16550240  0.33397811  0.46352664    -0.60400
H351        H  0.06404467  0.26022433  0.97976482     0.16530
O352        O  0.01909678  0.30796830  0.96693002    -0.60500
H353        H  0.01161107  0.30136580  0.94186171     0.43530
H354        H  0.17096337  0.34231501  0.43895475     0.43480
C355        C  0.00897559  0.10918448  0.20082132    -0.05580
C356        C  0.99699737  0.07241453  0.19835603    -0.33010
C357        C  0.99368749  0.05354041  0.16486713     0.36240
C358        C  0.00531926  0.07018240  0.13305462    -0.05940
C359        C  0.51928409  0.10615353  0.13593014    -0.32910
C360        C  0.52098892  0.12537318  0.16852298     0.36150
H361        H  0.99005539  0.05771816  0.22213872     0.16520
O362        O  0.97851037  0.01907799  0.16349995    -0.60400
H363        H  0.52866122  0.12031192  0.11240961     0.16530
O364        O  0.53421322  0.16063977  0.16841680    -0.60500
H365        H  0.51617729  0.17363601  0.15538913     0.43530
H366        H  0.99168251  0.50624327  0.18170804     0.43480
C367        C  0.97979203  0.08665932  0.34048811    -0.05580
C368        C  0.45723493  0.07819323  0.31061296    -0.33010
C369        C  0.46572472  0.09272043  0.27661592     0.36240
C370        C  0.99923142  0.11244438  0.27161260    -0.05940
C371        C  0.02003558  0.12118743  0.30314290    -0.32910
C372        C  0.00972301  0.11047123  0.33660400     0.36150
H373        H  0.43362559  0.06006607  0.31342877     0.16520
O374        O  0.44073091  0.08911372  0.24915740    -0.60400
H375        H  0.04377563  0.13929268  0.30364577     0.16530
O376        O  0.03101800  0.12124150  0.36580935    -0.60500
H377        H  0.05443782  0.11181245  0.36150284     0.43530
H378        H  0.43332242  0.06314869  0.24669897     0.43480
C379        C  0.48178770  0.16150623  0.23404507    -0.05580
C380        C  0.45819430  0.16187808  0.20411355    -0.33010
C381        C  0.42830529  0.18110926  0.20459965     0.36240
C382        C  0.41968386  0.19955403  0.23594677    -0.05940
C383        C  0.44380988  0.20255855  0.26477959    -0.32910
C384        C  0.47497406  0.18447055  0.26397776     0.36150
H385        H  0.46056620  0.14553398  0.18039146     0.16520
O386        O  0.40671355  0.18062375  0.17438886    -0.60400
H387        H  0.43761429  0.21725879  0.28885966     0.16530
O388        O  0.49703932  0.18717148  0.29383602    -0.60500
H389        H  0.50215084  0.21308700  0.29943991     0.43530
H390        H  0.39422530  0.15626983  0.17295605     0.43480
C391        C  0.04925810  0.14782554  0.24081619    -0.05580
C392        C  0.07513629  0.12262916  0.24526521    -0.33010
C393        C  0.11049563  0.13326440  0.25504493     0.36240
C394        C  0.12122347  0.16964265  0.26053298    -0.05940
C395        C  0.09618648  0.19489209  0.25530319    -0.32910
C396        C  0.06093698  0.18459910  0.24444235     0.36150
H397        H  0.06742982  0.09423663  0.24207099     0.16520
O398        O  0.13494842  0.10812177  0.25657817    -0.60400
H399        H  0.10500474  0.22318186  0.25627604     0.16530
O400        O  0.03942958  0.21058112  0.23420490    -0.60500
H401        H  0.04104356  0.22895082  0.25379744     0.43530
H402        H  0.13593675  0.10116522  0.28210863     0.43480
C403        C  0.50956475  0.13268897  0.73640676    -0.02600
O404        O  0.45815660  0.06232554  0.89628559    -0.86600
O405        O  0.12307024  0.47372457  0.95655720    -0.86770
O406        O  0.07619637  0.08524616  0.92025207    -0.88440
O407        O  0.04272433  0.47945802  0.86361223    -0.87190
O408        O  0.00485426  0.43163469  0.87939325    -0.86780
O409        O  0.07428541  0.10595404  0.97865857    -0.88150
O410        O  0.10861141  0.50738674  0.90838244    -0.86630
O411        O  0.01197046  0.04984614  0.87327514    -0.86220
Zr412      Zr  0.04784118  0.02205285  0.91588143     2.84310
O413        O  0.04626764  0.46400823  0.93819477    -1.08190
O414        O  0.01556549  0.05767295  0.95331983    -1.08920
C415        C  0.98202010  0.06379770  0.87169610     1.06510
C416        C  0.13043603  0.48938211  0.92629774     1.06450
C417        C  0.08222486  0.10968054  0.94559952     1.09430
C418        C  0.02544691  0.44846087  0.85697403     1.07210
H419        H  0.09699998  0.03632999  0.97238454     0.32770
O420        O  0.07274995  0.02607427  0.97369465    -1.29150
H421        H  0.47763658  0.49570765  0.89460083     0.32440
O422        O  0.98855532  0.49771517  0.91828302    -1.30830
O423        O  0.06793130  0.44564905  0.55851880    -0.86600
O424        O  0.40306522  0.02803032  0.99429592    -0.88090
O425        O  0.10074658  0.05753595  0.53935541    -0.86670
O426        O  0.02283642  0.38686923  0.94622345    -0.86720
O427        O  0.42708983  0.44318751  0.91238082    -0.86440
O428        O  0.00684576  0.11529749  0.50372992    -0.86240
O429        O  0.48699044  0.02116869  0.58988424    -0.86610
O430        O  0.44826659  0.41815403  0.53191378    -0.86070
O431        O  0.02490452  0.06866449  0.57347511    -0.87140
O432        O  0.45111152  0.39760086  0.97350270    -0.86300
O433        O  0.11611790  0.50019878  0.52846631    -0.86690
O434        O  0.45681208  0.09635115  0.97066704    -0.86420
O435        O  0.41099040  0.49996325  0.92444158    -0.86070
O436        O  0.07080302  0.40656458  0.98201128    -0.86470
O437        O  0.01080169  0.44970181  0.57721912    -0.86770
O438        O  0.41763223  0.49471525  0.54258718    -0.88110
Zr439      Zr  0.07002124  0.46837068  0.99635785     2.83100
Zr440      Zr  0.45654326  0.03406910  0.95578389     2.83500
Zr441      Zr  0.04041908  0.06163518  0.51140595     2.84090
Zr442      Zr  0.98703869  0.43995989  0.94079957     2.83360
Zr443      Zr  0.47815061  0.48034405  0.53557749     2.84220
O444        O  0.45412411  0.47613231  0.97756003    -1.08680
O445        O  0.03759239  0.50391532  0.53366150    -1.08180
C446        C  0.04297994  0.44235857  0.58203831     1.06480
C447        C  0.39560643  0.01205453  0.52427931     1.09100
C448        C  0.12205630  0.03194054  0.54124909     1.06650
C449        C  0.05267910  0.38240591  0.96304956     1.07010
C450        C  0.40542458  0.46844162  0.91099912     1.06590
C451        C  0.47757747  0.12076232  0.98659655     1.06150
C452        C  0.00543923  0.05164788  0.59665921     1.06570
C453        C  0.44244946  0.39403101  0.50636414     1.06080
H454        H  0.46696769  0.05378738  0.52877295     0.32760
O455        O  0.48051199  0.03867709  0.51395528    -1.29780
H456        H  0.01145643  0.42060990  0.50948287     0.32790
O457        O  0.01130877  0.44406362  0.99920161    -1.31160
C458        C  0.25824296  0.00516312  0.59856467    -0.02600
O459        O  0.18121854  0.18917690  0.78073186    -0.86600
O460        O  0.24747505  0.27577227  0.61051159    -0.86770
O461        O  0.15327112  0.25853865  0.69413903    -0.88440
O462        O  0.20915827  0.16341251  0.66056685    -0.87190
O463        O  0.26462418  0.14553940  0.67437739    -0.86780
O464        O  0.17354103  0.30532590  0.73091845    -0.88150
O465        O  0.19937119  0.23873217  0.62662932    -0.86630
O466        O  0.16322938  0.18893030  0.72126677    -0.86220
Zr467      Zr  0.20640764  0.22335583  0.68888264     2.84310
O468        O  0.26422494  0.22328220  0.66832666    -1.08190
O469        O  0.21005017  0.24854416  0.74676845    -1.08920
C470        C  0.15818229  0.18257444  0.75443629     1.06510
C471        C  0.21672415  0.25822018  0.60367768     1.06450
C472        C  0.14905595  0.28783764  0.71215476     1.09430
C473        C  0.23362693  0.14100098  0.65996993     1.07210
H474        H  0.21631475  0.29656674  0.67029196     0.32770
O475        O  0.23095767  0.28268948  0.68532338    -1.29150
H476        H  0.22914129  0.16592902  0.72958125     0.32440
O477        O  0.24001814  0.19008144  0.72816948    -1.30830
O478        O  0.35175157  0.31179370  0.66775347    -0.86600
O479        O  0.28475617  0.22402254  0.83991675    -0.88090
O480        O  0.24112112  0.35969449  0.70333890    -0.86670
O481        O  0.32602352  0.18947239  0.64844108    -0.86720
O482        O  0.28992111  0.13769773  0.74786890    -0.86440
O483        O  0.20981038  0.30767159  0.80370221    -0.86240
O484        O  0.32300456  0.33617192  0.78882960    -0.86610
O485        O  0.37869095  0.24125329  0.75499582    -0.86070
O486        O  0.26783114  0.35391574  0.77390156    -0.87140
O487        O  0.35926698  0.18949529  0.72431335    -0.86300
O488        O  0.27468953  0.34399443  0.65577773    -0.86690
O489        O  0.21381530  0.25112733  0.82573829    -0.86420
O490        O  0.25636527  0.15433795  0.79498533    -0.86070
O491        O  0.31292412  0.24220929  0.62250018    -0.86470
O492        O  0.36981554  0.30926559  0.72692397    -0.86770
O493        O  0.33297987  0.26039333  0.82292228    -0.88110
Zr494      Zr  0.28889788  0.28250432  0.66389430     2.83100
Zr495      Zr  0.24413018  0.21575087  0.78566403     2.83500
Zr496      Zr  0.23524113  0.30701938  0.74325864     2.84090
Zr497      Zr  0.29788000  0.19039875  0.70763702     2.83360
Zr498      Zr  0.32629762  0.27565851  0.76048258     2.84220
O499        O  0.30232760  0.21599930  0.76510234    -1.08680
O500        O  0.29255074  0.30839074  0.72150500    -1.08180
C501        C  0.37478783  0.31834948  0.69427845     1.06480
C502        C  0.31559263  0.24161410  0.84641160     1.09100
C503        C  0.25716406  0.36653293  0.67335703     1.06650
C504        C  0.32680926  0.21201511  0.62245991     1.07010
C505        C  0.27354741  0.13136205  0.77782410     1.06590
C506        C  0.20590762  0.28362006  0.82818496     1.06150
C507        C  0.29838860  0.35858521  0.78915520     1.06570
C508        C  0.38362762  0.21106473  0.73921417     1.06080
H509        H  0.27135230  0.28624217  0.80576370     0.32760
O510        O  0.26934151  0.27488828  0.78228713    -1.29780
H511        H  0.34598258  0.24858971  0.69294213     0.32790
O512        O  0.32260915  0.24933437  0.70284750    -1.31160
C513        C  0.13924668  0.25900720  0.96218463    -0.02600
C514        C  0.02434471  0.37051377  0.71646305    -0.02600
C515        C  0.39264000  0.24418403  0.98840119    -0.02600
C516        C  0.26872215  0.49257322  0.85224434    -0.02600
C517        C  0.15854395  0.26849958  0.92673594    -0.05580
C518        C  0.19551031  0.26817262  0.92321907    -0.33010
C519        C  0.21233532  0.28187427  0.89293848     0.36240
C520        C  0.19206449  0.29162663  0.86306100    -0.05940
C521        C  0.15540843  0.29106230  0.86526366    -0.32910
C522        C  0.13845537  0.27868445  0.89600414     0.36150
H523        H  0.21174707  0.25602790  0.94295978     0.16520
O524        O  0.24847311  0.28065796  0.89053053    -0.60400
H525        H  0.13948958  0.29647904  0.84170569     0.16530
O526        O  0.10196833  0.27667022  0.89560108    -0.60500
H527        H  0.09416451  0.25703189  0.87827980     0.43530
H528        H  0.25862943  0.30531377  0.89661155     0.43480
C529        C  0.16138684  0.25987075  0.49873550    -0.05580
C530        C  0.19537331  0.27874950  0.50492450    -0.33010
C531        C  0.21400747  0.27817891  0.53811060     0.36240
C532        C  0.19861482  0.25994368  0.56736235    -0.05940
C533        C  0.16401966  0.24311176  0.56217304    -0.32910
C534        C  0.14549169  0.24357625  0.52919034     0.36150
H535        H  0.20812372  0.29525198  0.98486716     0.16520
O536        O  0.24697159  0.29638476  0.54162940    -0.60400
H537        H  0.15053154  0.22953864  0.58407033     0.16530
O538        O  0.11148887  0.22749432  0.52707290    -0.60500
H539        H  0.09637247  0.24497490  0.53811845     0.43530
H540        H  0.26388407  0.27935352  0.53300194     0.43480
C541        C  0.36891608  0.24345664  0.95280984    -0.05580
C542        C  0.38656117  0.25485684  0.92143035    -0.33010
C543        C  0.37013378  0.25250059  0.88745318     0.36240
C544        C  0.33349260  0.24127301  0.88311204    -0.05940
C545        C  0.31455139  0.23260043  0.91441019    -0.32910
C546        C  0.33151429  0.23414995  0.94900147     0.36150
H547        H  0.41464716  0.26372238  0.92306423     0.16520
O548        O  0.39086510  0.26105374  0.85850446    -0.60400
H549        H  0.28613691  0.22566912  0.91230437     0.16530
O550        O  0.31063702  0.23065030  0.97870243    -0.60500
H551        H  0.29397278  0.20905173  0.97442321     0.43510
H552        H  0.39989196  0.23814796  0.85046400     0.43480
C553        C  0.35016476  0.20886082  0.59192513    -0.05580
C554        C  0.34091871  0.18768354  0.56119074    -0.33010
C555        C  0.35511039  0.19766760  0.52743982     0.36240
C556        C  0.37373480  0.23203918  0.52354569    -0.05940
C557        C  0.38281423  0.25173710  0.55575066    -0.32910
C558        C  0.37463608  0.23851396  0.58898751     0.36150
H559        H  0.32257688  0.16405360  0.56322193     0.16520
O560        O  0.35161874  0.17385260  0.49881039    -0.60400
H561        H  0.39945998  0.27654578  0.55663021     0.16530
O562        O  0.38640573  0.25823953  0.61890548    -0.60500
H563        H  0.40437507  0.24404519  0.63051535     0.43530
H564        H  0.32672973  0.16301952  0.49844201     0.43480
C565        C  0.30127960  0.39196367  0.80995640    -0.05580
C566        C  0.27714744  0.39254635  0.83787374    -0.33010
C567        C  0.26071680  0.42341159  0.84689178     0.36240
C568        C  0.27084226  0.45679675  0.83043202    -0.05940
C569        C  0.29626196  0.45567296  0.80280195    -0.32910
C570        C  0.31086222  0.42392967  0.79246152     0.36150
H571        H  0.26793482  0.36763886  0.85039641     0.16520
O572        O  0.23662898  0.42064986  0.87397670    -0.60400
H573        H  0.30676286  0.47994042  0.79028568     0.16530
O574        O  0.33319604  0.42404769  0.76388977    -0.60500
H575        H  0.35710817  0.43182136  0.77414077     0.43530
H576        H  0.21438844  0.40922298  0.86270894     0.43480
C577        C  0.27377470  0.09552943  0.79491701    -0.05580
C578        C  0.26475558  0.06353665  0.77535518    -0.33010
C579        C  0.26040166  0.03015819  0.79270138     0.36240
C580        C  0.26770620  0.02783116  0.83025388    -0.05940
C581        C  0.27465130  0.06052020  0.84955873    -0.32910
C582        C  0.27808422  0.09356478  0.83248658     0.36150
H583        H  0.25927451  0.06457039  0.74675395     0.16520
O584        O  0.24768193  0.00060412  0.77275189    -0.60400
H585        H  0.27911263  0.06033022  0.87832254     0.16530
O586        O  0.28585689  0.12404723  0.85306241    -0.60500
H587        H  0.31217807  0.12809066  0.85328952     0.43530
H588        H  0.22190336  0.00314657  0.76905383     0.43480
C589        C  0.48454701  0.35627485  0.70777290    -0.05580
C590        C  0.45669914  0.37253435  0.72522932    -0.33010
C591        C  0.42091122  0.36423087  0.71627056     0.36240
C592        C  0.41048622  0.33779752  0.69013594    -0.05940
C593        C  0.43730245  0.32350407  0.67006212    -0.32910
C594        C  0.47394057  0.33340621  0.67772553     0.36150
H595        H  0.46201234  0.39313544  0.74569339     0.16520
O596        O  0.39577777  0.38044466  0.73545680    -0.60400
H597        H  0.43010558  0.30376898  0.64920412     0.16530
O598        O  0.49909240  0.32183787  0.65499950    -0.60500
H599        H  0.49246387  0.29613300  0.64949519     0.43530
H600        H  0.38908128  0.40048569  0.72037013     0.43480
C601        C  0.11517959  0.30564424  0.71225161    -0.05580
C602        C  0.08112908  0.28717899  0.71152142    -0.33010
C603        C  0.04999245  0.30583577  0.71637916     0.36240
C604        C  0.05338034  0.34363346  0.72120168    -0.05940
C605        C  0.08802705  0.36049671  0.72553425    -0.32910
C606        C  0.11783741  0.34296613  0.71876444     0.36150
H607        H  0.07889648  0.25851273  0.70739230     0.16520
O608        O  0.01730441  0.28710204  0.71877261    -0.60400
H609        H  0.09222346  0.38924633  0.72927902     0.16530
O610        O  0.14963094  0.36345777  0.71620999    -0.60500
H611        H  0.15633106  0.37166141  0.74108824     0.43530
H612        H  0.01592892  0.26832283  0.69958814     0.43480
C613        C  0.25884376  0.46956902  0.62014046    -0.05580
C614        C  0.26567317  0.46791669  0.65763628    -0.33010
C615        C  0.26280297  0.43500302  0.67585680     0.36240
C616        C  0.25560115  0.40240238  0.65658825    -0.05940
C617        C  0.25077561  0.40372963  0.61926340    -0.32910
C618        C  0.25237294  0.43632056  0.60121667     0.36150
H619        H  0.27390627  0.49189355  0.67314754     0.16520
O620        O  0.26909316  0.43494371  0.71221399    -0.60400
H621        H  0.24571000  0.37905917  0.60368889     0.16530
O622        O  0.24642888  0.43536690  0.56475671    -0.60500
H623        H  0.26803362  0.42619092  0.55440191     0.43530
H624        H  0.24559822  0.43743628  0.72305808     0.43480
C625        C  0.25697372  0.04155172  0.61939753    -0.05580
C626        C  0.23508670  0.04381233  0.64978878    -0.33010
C627        C  0.22206759  0.07605368  0.66078593     0.36240
C628        C  0.22909382  0.10704471  0.64082833    -0.05940
C629        C  0.24978848  0.10547526  0.61047756    -0.32910
C630        C  0.26490907  0.07417571  0.60048707     0.36150
H631        H  0.22591777  0.02040931  0.66436736     0.16520
O632        O  0.20459383  0.07764175  0.69264519    -0.60400
H633        H  0.25764096  0.12994376  0.59648524     0.16530
O634        O  0.28757832  0.07598772  0.57197643    -0.60500
H635        H  0.27501263  0.08705120  0.55188248     0.43530
H636        H  0.17899639  0.07306752  0.68610581     0.43480
C637        C  0.04918346  0.42982721  0.61841097    -0.05580
C638        C  0.02882583  0.44433774  0.64548318    -0.33010
C639        C  0.01983751  0.42539218  0.67615787     0.36240
C640        C  0.03515151  0.39313123  0.68310200    -0.05940
C641        C  0.05737704  0.37978065  0.65602924    -0.32910
C642        C  0.06459422  0.39795929  0.62438239     0.36150
H643        H  0.01597258  0.46858118  0.64050738     0.16520
O644        O  0.99319478  0.43665459  0.69705888    -0.60400
H645        H  0.06751489  0.35368668  0.65761042     0.16530
O646        O  0.08297896  0.38212954  0.59787583    -0.60500
H647        H  0.10821580  0.39101302  0.60222715     0.43530
H648        H  0.00355106  0.45817912  0.71042732     0.43480
C649        C  0.02717435  0.39199548  0.75337062    -0.05580
C650        C  0.04288930  0.42759502  0.75763928    -0.33010
C651        C  0.04275787  0.44653653  0.79069985     0.36240
C652        C  0.02867206  0.42959600  0.82137820    -0.05940
C653        C  0.01657004  0.39306932  0.81806295    -0.32910
C654        C  0.01598676  0.37445683  0.78507253     0.36150
H655        H  0.05575066  0.44114649  0.73548213     0.16520
O656        O  0.05653242  0.48155125  0.79249896    -0.60400
H657        H  0.00705102  0.37847196  0.84127118     0.16530
O658        O  0.00442628  0.33872210  0.78399488    -0.60500
H659        H  0.47852691  0.33763590  0.78846994     0.43530
H660        H  0.03652180  0.49577576  0.78546643     0.43480
C661        C  0.23372890  0.49173271  0.87454507    -0.05580
C662        C  0.20126101  0.48362546  0.85542633    -0.33010
C663        C  0.16827881  0.48138207  0.87232241     0.36240
C664        C  0.16616861  0.48726969  0.90967429    -0.05940
C665        C  0.19805630  0.49632344  0.92917791    -0.32910
C666        C  0.23135293  0.49982266  0.91194630     0.36150
H667        H  0.20148870  0.97822103  0.82681084     0.16520
O668        O  0.13799956  0.47258091  0.85193684    -0.60400
H669        H  0.19702609  0.50271928  0.95758420     0.16530
O670        O  0.26077276  0.51270810  0.93180755    -0.60500
H671        H  0.25782258  0.53847037  0.93622439     0.43530
H672        H  0.13296426  0.99486448  0.83946054     0.43480
C673        C  0.37140924  0.46468430  0.89164277    -0.05580
C674        C  0.36881281  0.48918039  0.86414932    -0.33010
C675        C  0.33719509  0.00450815  0.85653031     0.36240
C676        C  0.30484760  0.49228314  0.87352938    -0.05940
C677        C  0.30797594  0.46651345  0.90078800    -0.32910
C678        C  0.34064593  0.45329408  0.91002636     0.36150
H679        H  0.39274414  0.99968876  0.85095769     0.16520
O680        O  0.33827678  0.02948606  0.83003284    -0.60400
H681        H  0.28463244  0.45475204  0.91379494     0.16530
O682        O  0.34256425  0.43056808  0.93832784    -0.60500
H683        H  0.33958123  0.40613342  0.92744056     0.43530
H684        H  0.34917509  0.05192878  0.84156255     0.43480
C685        C  0.15670243  0.03578266  0.55926918    -0.05580
C686        C  0.15917647  0.01433256  0.58927401    -0.33010
C687        C  0.18994380  0.99752896  0.59715770     0.36240
C688        C  0.22190174  0.00559207  0.57776651    -0.05940
C689        C  0.21885371  0.02778997  0.54753520    -0.32910
C690        C  0.18680074  0.04206589  0.53806983     0.36150
H691        H  0.13552073  0.00708437  0.60449846     0.16520
O692        O  0.18886966  0.97538576  0.62609631    -0.60400
H693        H  0.24156637  0.03623822  0.53190053     0.16530
O694        O  0.18454025  0.06014674  0.00652193    -0.60500
H695        H  0.19044906  0.08570483  0.01318974     0.43530
H696        H  0.17802683  0.95196833  0.61675091     0.43480
C697        C  0.35986651  0.01324785  0.54047075    -0.05580
C698        C  0.35847289  0.01886635  0.57767106    -0.33010
C699        C  0.32634787  0.01500175  0.59585850     0.36240
C700        C  0.29355105  0.00617687  0.57704821    -0.05940
C701        C  0.29533091  0.99888659  0.53968816    -0.32910
C702        C  0.32786421  0.00317762  0.52143532     0.36150
H703        H  0.38282089  0.02578736  0.59310319     0.16520
O704        O  0.32720017  0.02121399  0.63228174    -0.60400
H705        H  0.27179405  0.98905105  0.52440368     0.16530
O706        O  0.32841098  0.99521392  0.98545983    -0.60500
H707        H  0.32609583  0.01831475  0.97339273     0.43530
H708        H  0.33688871  0.99980685  0.64282957     0.43480
C709        C  0.42296383  0.21750579  0.98484822    -0.05580
C710        C  0.42353627  0.19402053  0.95466269    -0.33010
C711        C  0.44485875  0.16543089  0.95361951     0.36240
C712        C  0.46515695  0.15717651  0.98395940    -0.05940
C713        C  0.46786665  0.18130882  0.51296828    -0.32910
C714        C  0.44740230  0.21121043  0.51375046     0.36150
H715        H  0.40575759  0.19509705  0.93187088     0.16520
O716        O  0.44452031  0.14454686  0.92286618    -0.60400
H717        H  0.48406789  0.17579027  0.53625714     0.16530
O718        O  0.45084383  0.23325213  0.54363073    -0.60500
H719        H  0.44460989  0.21790688  0.56439103     0.43530
H720        H  0.42085034  0.13086656  0.92174347     0.43480
C721        C  0.42837436  0.35722784  0.51352618    -0.05580
C722        C  0.39260557  0.34703358  0.00574499    -0.33010
C723        C  0.38127616  0.31126291  0.99694596     0.36240
C724        C  0.40625683  0.28469694  0.99351469    -0.05940
C725        C  0.44239861  0.29599306  0.50013961    -0.32910
C726        C  0.45289626  0.33095732  0.51242273     0.36150
H727        H  0.37351127  0.36715030  0.00506088     0.16520
O728        O  0.34544836  0.30237725  0.99251102    -0.60400
H729        H  0.46284421  0.27781425  0.49683122     0.16530
O730        O  0.48806120  0.34025112  0.52074156    -0.60500
H731        H  0.49046582  0.33659721  0.54694284     0.43530
H732        H  0.33894208  0.31192286  0.96881136     0.43480
C733        C  0.09820267  0.14611835  0.93812782    -0.05580
C734        C  0.13372188  0.15502042  0.94837464    -0.33010
C735        C  0.14657075  0.19073600  0.95592807     0.36240
C736        C  0.12375466  0.21932713  0.95372110    -0.05940
C737        C  0.08902111  0.20997531  0.93967356    -0.32910
C738        C  0.07590300  0.17409465  0.93348836     0.36150
H739        H  0.15115858  0.13385614  0.95300097     0.16520
O740        O  0.18176337  0.19723702  0.46580650    -0.60400
H741        H  0.07120548  0.22981188  0.93278549     0.16530
O742        O  0.04021938  0.16637001  0.92624773    -0.60500
H743        H  0.03477501  0.17969212  0.90430002     0.43530
H744        H  0.18382179  0.18813224  0.49054087     0.43480
C745        C  0.07100654  0.34889174  0.96038635    -0.05580
C746        C  0.10808073  0.35382169  0.95945060    -0.33010
C747        C  0.12938094  0.32585574  0.96398363     0.36240
C748        C  0.11422380  0.29003752  0.96755054    -0.05940
C749        C  0.07687716  0.28555833  0.97185783    -0.32910
C750        C  0.05526182  0.31420827  0.96619373     0.36150
H751        H  0.12124170  0.38031247  0.95575862     0.16520
O752        O  0.16550166  0.33398435  0.96353197    -0.60400
H753        H  0.06404511  0.26022164  0.47976889     0.16530
O754        O  0.01909760  0.30796657  0.46693727    -0.60500
H755        H  0.01160880  0.30136227  0.44187019     0.43530
H756        H  0.17096365  0.34232186  0.93896050     0.43480
C757        C  0.00897498  0.10918359  0.70082148    -0.05580
C758        C  0.99699906  0.07241308  0.69836037    -0.33010
C759        C  0.99367731  0.05353858  0.66487246     0.36240
C760        C  0.00529207  0.07018158  0.63305497    -0.05940
C761        C  0.51926200  0.10615178  0.63592704    -0.32910
C762        C  0.52098157  0.12537082  0.66852034     0.36150
H763        H  0.99006840  0.05771621  0.72214574     0.16520
O764        O  0.97850797  0.01907352  0.66351239    -0.60400
H765        H  0.52863164  0.12031025  0.61240378     0.16530
O766        O  0.53421048  0.16063600  0.66841149    -0.60500
H767        H  0.51617336  0.17363519  0.65538898     0.43530
H768        H  0.99171452  0.50624222  0.68170548     0.43480
C769        C  0.97981850  0.08665365  0.84048839    -0.05580
C770        C  0.45725771  0.07818360  0.81061668    -0.33010
C771        C  0.46573789  0.09271572  0.77661962     0.36240
C772        C  0.99923984  0.11244698  0.77161286    -0.05940
C773        C  0.02004562  0.12119588  0.80314102    -0.32910
C774        C  0.00974157  0.11047430  0.83660237     0.36150
H775        H  0.43365308  0.06005053  0.81343527     0.16520
O776        O  0.44074016  0.08910569  0.74916472    -0.60400
H777        H  0.04378054  0.13930833  0.80364181     0.16530
O778        O  0.03103684  0.12125009  0.86580570    -0.60500
H779        H  0.05445852  0.11182565  0.86149797     0.43530
H780        H  0.43333481  0.06313995  0.74670676     0.43480
C781        C  0.48178787  0.16150580  0.73404464    -0.05580
C782        C  0.45819281  0.16187588  0.70411406    -0.33010
C783        C  0.42830293  0.18110576  0.70460039     0.36240
C784        C  0.41968048  0.19954924  0.73594763    -0.05940
C785        C  0.44380757  0.20255570  0.76477977    -0.32910
C786        C  0.47497372  0.18447047  0.76397700     0.36150
H787        H  0.46056404  0.14553177  0.68039202     0.16520
O788        O  0.40671186  0.18062097  0.67438920    -0.60400
H789        H  0.43761192  0.21725609  0.78885972     0.16530
O790        O  0.49704041  0.18717466  0.79383412    -0.60500
H791        H  0.50214976  0.21309066  0.79943683     0.43530
H792        H  0.39422386  0.15626700  0.67295547     0.43480
C793        C  0.04926068  0.14782651  0.74081054    -0.05580
C794        C  0.07513883  0.12263009  0.74526036    -0.33010
C795        C  0.11049681  0.13326512  0.75504534     0.36240
C796        C  0.12122345  0.16964319  0.76053699    -0.05940
C797        C  0.09618666  0.19489262  0.75530498    -0.32910
C798        C  0.06093852  0.18459971  0.74443937     0.36150
H799        H  0.06743284  0.09423758  0.74206478     0.16520
O800        O  0.13494973  0.10812266  0.75658052    -0.60400
H801        H  0.10500447  0.22318248  0.75627996     0.16530
O802        O  0.03943077  0.21058146  0.73420218    -0.60500
H803        H  0.04104387  0.22895057  0.75379523     0.43530
H804        H  0.13593492  0.10116473  0.78211071     0.43480
C805        C  0.50956667  0.63269086  0.23640394    -0.02600
O806        O  0.45816980  0.56232857  0.39628331    -0.86600
O807        O  0.12303947  0.97374739  0.45656701    -0.86770
O808        O  0.07620631  0.58524859  0.42025367    -0.88440
O809        O  0.04269283  0.97945977  0.36361533    -0.87190
O810        O  0.00483280  0.93162935  0.37939665    -0.86780
O811        O  0.07430277  0.60595283  0.47866221    -0.88150
O812        O  0.10857207  0.00739300  0.40838366    -0.86630
O813        O  0.01198360  0.54984828  0.37327484    -0.86220
Zr814      Zr  0.04785437  0.52205328  0.41588128     2.84310
O815        O  0.04623399  0.96401304  0.43819730    -1.08190
O816        O  0.01558459  0.55767547  0.45332148    -1.08920
C817        C  0.98203308  0.56379971  0.37169457     1.06510
C818        C  0.13040284  0.98939745  0.42630252     1.06450
C819        C  0.08223707  0.60968192  0.44560210     1.09430
C820        C  0.02542392  0.94845825  0.35697742     1.07210
H821        H  0.09701455  0.53632410  0.47238651     0.32770
O822        O  0.07276380  0.52607017  0.47369524    -1.29150
H823        H  0.47759420  0.99570398  0.39460732     0.32440
O824        O  0.98850976  0.99771426  0.41829088    -1.30830
O825        O  0.06792619  0.94565395  0.05852015    -0.86600
O826        O  0.40308416  0.52804736  0.49427628    -0.88090
O827        O  0.10083821  0.55748603  0.03933926    -0.86670
O828        O  0.02282177  0.88687553  0.44623426    -0.86720
O829        O  0.42706280  0.94317187  0.41236928    -0.86440
O830        O  0.00691103  0.61529951  0.00374077    -0.86240
O831        O  0.48703445  0.52117132  0.08987735    -0.86610
O832        O  0.44826311  0.91814789  0.03191551    -0.86070
O833        O  0.02496748  0.56865889  0.07348203    -0.87140
O834        O  0.45109307  0.89759166  0.47350850    -0.86300
O835        O  0.11610275  0.00021417  0.02846344    -0.86690
O836        O  0.45683214  0.59635293  0.47066735    -0.86420
O837        O  0.41094474  0.99994201  0.42442712    -0.86070
O838        O  0.07078909  0.90658200  0.48201612    -0.86470
O839        O  0.01079926  0.94971187  0.07722666    -0.86770
O840        O  0.41761706  0.99470842  0.04261314    -0.88110
Zr841      Zr  0.06998219  0.96838700  0.49636153     2.83100
Zr842      Zr  0.45656263  0.53407286  0.45577849     2.83500
Zr843      Zr  0.04049393  0.56163028  0.01141302     2.84090
Zr844      Zr  0.98700789  0.93995747  0.44080200     2.83360
Zr845      Zr  0.47813883  0.98034277  0.03558210     2.84220
O846        O  0.45407863  0.97612199  0.47756020    -1.08680
O847        O  0.03757983  0.00391873  0.03366118    -1.08180
C848        C  0.04297733  0.94236639  0.08204271     1.06480
C849        C  0.39569057  0.51209854  0.02427192     1.09100
C850        C  0.12214412  0.53188352  0.04122582     1.06650
C851        C  0.05266797  0.88241829  0.46305789     1.07010
C852        C  0.40539119  0.96842032  0.41098258     1.06590
C853        C  0.47759699  0.62076258  0.48659952     1.06150
C854        C  0.00548628  0.55164743  0.09665801     1.06570
C855        C  0.44244739  0.89402427  0.00636579     1.06080
H856        H  0.46704326  0.55379051  0.02876933     0.32760
O857        O  0.48058509  0.53867810  0.01395152    -1.29780
H858        H  0.01145046  0.92061199  0.00948549     0.32790
O859        O  0.01127039  0.94407328  0.49920682    -1.31160
C860        C  0.25836840  0.50518524  0.09857182    -0.02600
O861        O  0.18121837  0.68917655  0.28073238    -0.86600
O862        O  0.24747540  0.77576090  0.11051230    -0.86770
O863        O  0.15327210  0.75852552  0.19413348    -0.88440
O864        O  0.20918034  0.66339664  0.16055958    -0.87190
O865        O  0.26464188  0.64552703  0.17439547    -0.86780
O866        O  0.17353726  0.80531069  0.23091803    -0.88150
O867        O  0.19937246  0.73871780  0.12662722    -0.86630
O868        O  0.16323401  0.68891218  0.22126486    -0.86220
Zr869      Zr  0.20641013  0.72333892  0.18887985     2.84310
O870        O  0.26422975  0.72327047  0.16832790    -1.08190
O871        O  0.21004835  0.74852944  0.24676554    -1.08920
C872        C  0.15818435  0.68256681  0.25443607     1.06510
C873        C  0.21672470  0.75820891  0.10367745     1.06450
C874        C  0.14905439  0.78782411  0.21215018     1.09430
C875        C  0.23365173  0.64098691  0.15997358     1.07210
H876        H  0.21631381  0.79654747  0.17029077     0.32770
O877        O  0.23095833  0.78267237  0.18532267    -1.29150
H878        H  0.22914786  0.66591990  0.22958521     0.32440
O879        O  0.24002260  0.69007309  0.22817282    -1.30830
O880        O  0.35175161  0.81178892  0.16775282    -0.86600
O881        O  0.28475968  0.72401829  0.33991654    -0.88090
O882        O  0.24109830  0.85965993  0.20332174    -0.86670
O883        O  0.32602670  0.68946646  0.14844738    -0.86720
O884        O  0.28992824  0.63769669  0.24787702    -0.86440
O885        O  0.20980691  0.80766398  0.30369982    -0.86240
O886        O  0.32299514  0.83617468  0.28882818    -0.86610
O887        O  0.37869398  0.74125793  0.25499737    -0.86070
O888        O  0.26782108  0.85391154  0.27389172    -0.87140
O889        O  0.35927195  0.68949536  0.22432176    -0.86300
O890        O  0.27467422  0.84397507  0.15576088    -0.86690
O891        O  0.21381735  0.75112312  0.32574132    -0.86420
O892        O  0.25636554  0.65433412  0.29498908    -0.86070
O893        O  0.31292554  0.74219947  0.12249988    -0.86470
O894        O  0.36981482  0.80926722  0.22692410    -0.86770
O895        O  0.33298134  0.76039335  0.32292341    -0.88110
Zr896      Zr  0.28889922  0.78249376  0.16389380     2.83100
Zr897      Zr  0.24413130  0.71574589  0.28566619     2.83500
Zr898      Zr  0.23523726  0.80700374  0.24325708     2.84090
Zr899      Zr  0.29788628  0.69039643  0.20764505     2.83360
Zr900      Zr  0.32629780  0.77566013  0.26048422     2.84220
O901        O  0.30233037  0.71600030  0.26510785    -1.08680
O902        O  0.29254758  0.80838542  0.22150314    -1.08180
C903        C  0.37478750  0.81834833  0.19427781     1.06480
C904        C  0.31559554  0.74161100  0.34641155     1.09100
C905        C  0.25713327  0.86650260  0.17333757     1.06650
C906        C  0.32681130  0.71200583  0.12246326     1.07010
C907        C  0.27355097  0.63135980  0.27782974     1.06590
C908        C  0.20590714  0.78361522  0.32818532     1.06150
C909        C  0.29837663  0.85858559  0.28914912     1.06570
C910        C  0.38363181  0.71106802  0.23921872     1.06080
H911        H  0.27135043  0.78623878  0.30576458     0.32760
O912        O  0.26934116  0.77488310  0.28228880    -1.29780
H913        H  0.34598682  0.74858726  0.19294575     0.32790
O914        O  0.32261328  0.74933147  0.20285097    -1.31160
C915        C  0.13924398  0.75901600  0.46218680    -0.02600
C916        C  0.02434643  0.87051150  0.21646335    -0.02600
C917        C  0.39264429  0.74417138  0.48840049    -0.02600
C918        C  0.26869836  0.99257341  0.35224234    -0.02600
C919        C  0.15854317  0.76850835  0.42673916    -0.05580
C920        C  0.19550995  0.76818161  0.42322324    -0.33010
C921        C  0.21233502  0.78187664  0.39293981     0.36240
C922        C  0.19206407  0.79162475  0.36306071    -0.05940
C923        C  0.15540809  0.79106176  0.36526330    -0.32910
C924        C  0.13845493  0.77868858  0.39600549     0.36150
H925        H  0.21174704  0.75604030  0.44296596     0.16520
O926        O  0.24847266  0.78065804  0.39053190    -0.60400
H927        H  0.13948924  0.79647498  0.34170425     0.16530
O928        O  0.10196783  0.77667199  0.39560144    -0.60500
H929        H  0.09416564  0.75703067  0.37828291     0.43530
H930        H  0.25863020  0.80531450  0.39660822     0.43480
C931        C  0.16138483  0.75987752  0.99873928    -0.05580
C932        C  0.19537181  0.77875425  0.00492944    -0.33010
C933        C  0.21400715  0.77817692  0.03811397     0.36240
C934        C  0.19861450  0.75993783  0.06736346    -0.05940
C935        C  0.16401814  0.74310893  0.06217363    -0.32910
C936        C  0.14548937  0.74357937  0.02919199     0.36150
H937        H  0.20811836  0.79526375  0.48487330     0.16520
O938        O  0.24697284  0.79637940  0.04163338    -0.60400
H939        H  0.15053006  0.72953341  0.08406954     0.16530
O940        O  0.11148597  0.72749894  0.02707297    -0.60500
H941        H  0.09637017  0.74497964  0.03811925     0.43530
H942        H  0.26388314  0.77934760  0.03300233     0.43480
C943        C  0.36892146  0.74344062  0.45280796    -0.05580
C944        C  0.38656575  0.75484508  0.42142919    -0.33010
C945        C  0.37013766  0.75249368  0.38745227     0.36240
C946        C  0.33349659  0.74126614  0.38311095    -0.05940
C947        C  0.31455638  0.73258791  0.41440822    -0.32910
C948        C  0.33152000  0.73413221  0.44899898     0.36150
H949        H  0.41465133  0.76371238  0.42306350     0.16520
O950        O  0.39086782  0.76105248  0.35850414    -0.60400
H951        H  0.28614188  0.72565656  0.41230233     0.16530
O952        O  0.31064302  0.73062689  0.47869957    -0.60500
H953        H  0.29398249  0.70902587  0.47441863     0.43510
H954        H  0.39989585  0.73814853  0.35045980     0.43480
C955        C  0.35016743  0.70884864  0.09192977    -0.05580
C956        C  0.34091840  0.68767419  0.06119417    -0.33010
C957        C  0.35511350  0.69765657  0.02744429     0.36240
C958        C  0.37374502  0.73202478  0.02355239    -0.05940
C959        C  0.38282692  0.75172018  0.05575814    -0.32910
C960        C  0.37464348  0.73849821  0.08899428     0.36150
H961        H  0.32257159  0.66404778  0.06322364     0.16520
O962        O  0.35161638  0.67384377  0.99881327    -0.60400
H963        H  0.39947709  0.77652616  0.05663839     0.16530
O964        O  0.38641360  0.75822184  0.11891331    -0.60500
H965        H  0.40439006  0.74403128  0.13051640     0.43530
H966        H  0.32672511  0.66301681  0.99844397     0.43480
C967        C  0.30126129  0.89196516  0.30995004    -0.05580
C968        C  0.27712674  0.89254633  0.33786565    -0.33010
C969        C  0.26069554  0.92341138  0.34688522     0.36240
C970        C  0.27082028  0.95679747  0.33042743    -0.05940
C971        C  0.29624231  0.95567474  0.30279849    -0.32910
C972        C  0.31084429  0.92393229  0.29245734     0.36150
H973        H  0.26791444  0.86763823  0.35038725     0.16520
O974        O  0.23660886  0.92064902  0.37397098    -0.60400
H975        H  0.30674525  0.97994277  0.29028472     0.16530
O976        O  0.33318116  0.92405283  0.26388781    -0.60500
H977        H  0.35709377  0.93181723  0.27414326     0.43530
H978        H  0.21436767  0.90922344  0.36270348     0.43480
C979        C  0.27377799  0.59552759  0.29492174    -0.05580
C980        C  0.26476028  0.56353529  0.27535880    -0.33010
C981        C  0.26040694  0.53015658  0.29270418     0.36240
C982        C  0.26771061  0.52782941  0.33025670    -0.05940
C983        C  0.27465326  0.56051816  0.34956259    -0.32910
C984        C  0.27808569  0.59356286  0.33249126     0.36150
H985        H  0.25928021  0.56456958  0.24675741     0.16520
O986        O  0.24768878  0.50060244  0.27275401    -0.60400
H987        H  0.27911369  0.56032785  0.37832648     0.16530
O988        O  0.28585646  0.62404526  0.35306768    -0.60500
H989        H  0.31217756  0.62808999  0.35329545     0.43530
H990        H  0.22191002  0.50314375  0.26905577     0.43480
C991        C  0.48454808  0.85627421  0.20777127    -0.05580
C992        C  0.45670027  0.87253451  0.22522692    -0.33010
C993        C  0.42091196  0.86423057  0.21626883     0.36240
C994        C  0.41048631  0.83779675  0.19013460    -0.05940
C995        C  0.43730260  0.82350362  0.17006038    -0.32910
C996        C  0.47394107  0.83340590  0.17772356     0.36150
H997        H  0.46201393  0.89313574  0.24569076     0.16520
O998        O  0.39577883  0.88044413  0.23545582    -0.60400
H999        H  0.43010544  0.80376856  0.14920231     0.16530
O1000       O  0.49909266  0.82183755  0.15499725    -0.60500
H1001       H  0.49246379  0.79613282  0.14949251     0.43530
H1002       H  0.38908213  0.90048554  0.22036982     0.43480
C1003       C  0.11517833  0.80563370  0.21224399    -0.05580
C1004       C  0.08112640  0.78717148  0.21151436    -0.33010
C1005       C  0.04999114  0.80583078  0.21637417     0.36240
C1006       C  0.05338126  0.84362862  0.22119813    -0.05940
C1007       C  0.08802918  0.86048915  0.22552875    -0.32910
C1008       C  0.11783825  0.84295600  0.21875667     0.36150
H1009       H  0.07889183  0.75850538  0.20738464     0.16520
O1010       O  0.01730229  0.78709894  0.21876937    -0.60400
H1011       H  0.09222717  0.88923858  0.22927503     0.16530
O1012       O  0.14963304  0.86344529  0.21620145    -0.60500
H1013       H  0.15633377  0.87164960  0.24107935     0.43530
H1014       H  0.01592498  0.76831893  0.19958564     0.43480
C1015       C  0.25875798  0.96955699  0.12015133    -0.05580
C1016       C  0.26548640  0.96789185  0.15766644    -0.33010
C1017       C  0.26264540  0.93496509  0.17586723     0.36240
C1018       C  0.25554017  0.90236923  0.15657290    -0.05940
C1019       C  0.25076878  0.90370939  0.11924334    -0.32910
C1020       C  0.25234669  0.93630962  0.10121135     0.36150
H1021       H  0.27367355  0.99186207  0.17320458     0.16520
O1022       O  0.26893829  0.93488576  0.21222440    -0.60400
H1023       H  0.24576519  0.87904208  0.10365205     0.16530
O1024       O  0.24644752  0.93536367  0.06474524    -0.60500
H1025       H  0.26805853  0.92617569  0.05441603     0.43530
H1026       H  0.24544829  0.93738412  0.22307592     0.43480
C1027       C  0.25708052  0.54156694  0.11940977    -0.05580
C1028       C  0.23516868  0.54380839  0.14978335    -0.33010
C1029       C  0.22211805  0.57603712  0.16077139     0.36240
C1030       C  0.22913894  0.60703483  0.14082191    -0.05940
C1031       C  0.24986142  0.60548319  0.11048833    -0.32910
C1032       C  0.26501678  0.57419868  0.10051244     0.36150
H1033       H  0.22600576  0.52039728  0.16435317     0.16520
O1034       O  0.20461791  0.57760772  0.19261635    -0.60400
H1035       H  0.25771301  0.62995820  0.09650633     0.16530
O1036       O  0.28772438  0.57603548  0.07203342    -0.60500
H1037       H  0.27517255  0.58708549  0.05192201     0.43530
H1038       H  0.17902747  0.57300683  0.18605760     0.43480
C1039       C  0.04918351  0.92983326  0.11841459    -0.05580
C1040       C  0.02883022  0.94434409  0.14549038    -0.33010
C1041       C  0.01984310  0.92539655  0.17616465     0.36240
C1042       C  0.03515349  0.89313241  0.18310410    -0.05940
C1043       C  0.05737520  0.87978206  0.15602794    -0.32910
C1044       C  0.06459154  0.89796297  0.12438206     0.36150
H1045       H  0.01598015  0.96859064  0.14051919     0.16520
O1046       O  0.99320629  0.93666217  0.19707154    -0.60400
H1047       H  0.06751063  0.85368674  0.15760585     0.16530
O1048       O  0.08297258  0.88213343  0.09787248    -0.60500
H1049       H  0.10821034  0.89101440  0.10222228     0.43530
H1050       H  0.00356570  0.95819088  0.21043144     0.43480
C1051       C  0.02717612  0.89199046  0.25337361    -0.05580
C1052       C  0.04289201  0.92758936  0.25764610    -0.33010
C1053       C  0.04275317  0.94653132  0.29070654     0.36240
C1054       C  0.02865822  0.92959205  0.32138207    -0.05940
C1055       C  0.01655812  0.89306483  0.31806433    -0.32910
C1056       C  0.01598334  0.87445170  0.28507385     0.36150
H1057       H  0.05575826  0.94114059  0.23549146     0.16520
O1058       O  0.05652974  0.98154532  0.29250817    -0.60400
H1059       H  0.00703350  0.87846762  0.34127047     0.16530
O1060       O  0.00442398  0.83871674  0.28399423    -0.60500
H1061       H  0.47852374  0.83762964  0.28846489     0.43530
H1062       H  0.03652291  0.99577097  0.28546655     0.43480
C1063       C  0.23370316  0.99173366  0.37454477    -0.05580
C1064       C  0.20123362  0.98362839  0.35542808    -0.33010
C1065       C  0.16825008  0.98139217  0.37232483     0.36240
C1066       C  0.16613846  0.98728449  0.40967667    -0.05940
C1067       C  0.19802891  0.99633376  0.42917851    -0.32910
C1068       C  0.23132682  0.99982596  0.41194604     0.36150
H1069       H  0.20149669  0.47821638  0.32681245     0.16520
O1070       O  0.13797070  0.97259202  0.35193943    -0.60400
H1071       H  0.19700061  0.00273099  0.45758463     0.16530
O1072       O  0.26074826  0.01270716  0.43180702    -0.60500
H1073       H  0.25780250  0.03847042  0.43622307     0.43530
H1074       H  0.13297140  0.49485672  0.33946193     0.43480
C1075       C  0.37137886  0.96465633  0.39162208    -0.05580
C1076       C  0.36878385  0.98915384  0.36412941    -0.33010
C1077       C  0.33720139  0.50451238  0.35653179     0.36240
C1078       C  0.30482399  0.99228085  0.37352742    -0.05940
C1079       C  0.30794999  0.96650847  0.40078360    -0.32910
C1080       C  0.34061648  0.95327670  0.41001259     0.36150
H1081       H  0.39275123  0.49969827  0.35095901     0.16520
O1082       O  0.33828073  0.52949012  0.33003416    -0.60400
H1083       H  0.28460628  0.95475326  0.41379471     0.16530
O1084       O  0.34253406  0.93055174  0.43831502    -0.60500
H1085       H  0.33955755  0.90611677  0.42742798     0.43530
H1086       H  0.34917759  0.55193360  0.34156357     0.43480
C1087       C  0.15679509  0.53571246  0.05924580    -0.05580
C1088       C  0.15927815  0.51424107  0.08923481    -0.33010
C1089       C  0.19006906  0.49748335  0.09713491     0.36240
C1090       C  0.22202997  0.50559692  0.07776521    -0.05940
C1091       C  0.21897201  0.52781135  0.04754671    -0.32910
C1092       C  0.18690092  0.54204542  0.03806640     0.36150
H1093       H  0.13562046  0.50695309  0.10444184     0.16520
O1094       O  0.18900834  0.47533212  0.12606726    -0.60400
H1095       H  0.24168817  0.53630069  0.03193355     0.16530
O1096       O  0.18455893  0.56016642  0.50654818    -0.60500
H1097       H  0.19045309  0.58572298  0.51323166     0.43530
H1098       H  0.17819152  0.45190775  0.11671292     0.43480
C1099       C  0.35996367  0.51330839  0.04046413    -0.05580
C1100       C  0.35858250  0.51893867  0.07766217    -0.33010
C1101       C  0.32646634  0.51505877  0.09585785     0.36240
C1102       C  0.29366958  0.50621738  0.07705343    -0.05940
C1103       C  0.29543911  0.49892673  0.03969348    -0.32910
C1104       C  0.32796430  0.50322356  0.02143454     0.36150
H1105       H  0.38293373  0.52587172  0.09308567     0.16520
O1106       O  0.32732546  0.52127492  0.13228059    -0.60400
H1107       H  0.27190055  0.48908533  0.02441469     0.16530
O1108       O  0.32842854  0.49522486  0.48544825    -0.60500
H1109       H  0.32610883  0.51832063  0.47337346     0.43530
H1110       H  0.33702427  0.49987288  0.14282816     0.43480
C1111       C  0.42297237  0.71749772  0.48485029    -0.05580
C1112       C  0.42355434  0.69401690  0.45466246    -0.33010
C1113       C  0.44488305  0.66543214  0.45361974     0.36240
C1114       C  0.46517625  0.65717670  0.48396279    -0.05940
C1115       C  0.46790297  0.68131104  0.01298018    -0.32910
C1116       C  0.44742399  0.71120388  0.01376300     0.36150
H1117       H  0.40577965  0.69509327  0.43186757     0.16520
O1118       O  0.44455503  0.64455284  0.42286387    -0.60400
H1119       H  0.48411011  0.67580127  0.03626752     0.16530
O1120       O  0.45086038  0.73324737  0.04364193    -0.60500
H1121       H  0.44462948  0.71790166  0.06440267     0.43530
H1122       H  0.42088658  0.63086987  0.42173316     0.43480
C1123       C  0.42837653  0.85721884  0.01352794    -0.05580
C1124       C  0.39259388  0.84701735  0.50574453    -0.33010
C1125       C  0.38127084  0.81124698  0.49694081     0.36240
C1126       C  0.40625608  0.78468511  0.49351210    -0.05940
C1127       C  0.44240612  0.79598434  0.00014398    -0.32910
C1128       C  0.45290108  0.83095076  0.01242398     0.36150
H1129       H  0.37349645  0.86713106  0.50505968     0.16520
O1130       O  0.34544430  0.80235719  0.49250061    -0.60400
H1131       H  0.46285347  0.77780744  0.99683598     0.16530
O1132       O  0.48806569  0.84024856  0.02074071    -0.60500
H1133       H  0.49047248  0.83659434  0.04694175     0.43530
H1134       H  0.33893987  0.81190403  0.46880094     0.43480
C1135       C  0.09821071  0.64612189  0.43813068    -0.05580
C1136       C  0.13372928  0.65502814  0.44837708    -0.33010
C1137       C  0.14657465  0.69074504  0.45592959     0.36240
C1138       C  0.12375541  0.71933402  0.45372279    -0.05940
C1139       C  0.08902198  0.70997797  0.43967693    -0.32910
C1140       C  0.07590775  0.67409570  0.43349170     0.36150
H1141       H  0.15116857  0.63386604  0.45300334     0.16520
O1142       O  0.18177600  0.69725647  0.96580405    -0.60400
H1143       H  0.07120400  0.72981253  0.43278928     0.16530
O1144       O  0.04022479  0.66636689  0.42625071    -0.60500
H1145       H  0.03477921  0.67968765  0.40430249     0.43530
H1146       H  0.18383488  0.68814883  0.99053727     0.43480
C1147       C  0.07100015  0.84890453  0.46039750    -0.05580
C1148       C  0.10807482  0.85383464  0.45946459    -0.33010
C1149       C  0.12937561  0.82586623  0.46398757     0.36240
C1150       C  0.11421932  0.79004685  0.46755083    -0.05940
C1151       C  0.07687232  0.78556750  0.47185640    -0.32910
C1152       C  0.05525651  0.81421864  0.46619667     0.36150
H1153       H  0.12123566  0.88032638  0.45577839     0.16520
O1154       O  0.16549622  0.83399450  0.46353198    -0.60400
H1155       H  0.06404223  0.76022517  0.97976587     0.16530
O1156       O  0.01909462  0.80796922  0.96692982    -0.60500
H1157       H  0.01161003  0.80136729  0.94186110     0.43530
H1158       H  0.17095500  0.84233307  0.43896018     0.43480
C1159       C  0.00897659  0.60918716  0.20081703    -0.05580
C1160       C  0.99699980  0.57241684  0.19835278    -0.33010
C1161       C  0.99368982  0.55354200  0.16486438     0.36240
C1162       C  0.00532007  0.57018353  0.13305122    -0.05940
C1163       C  0.51928275  0.60615545  0.13592550    -0.32910
C1164       C  0.52098758  0.62537583  0.16851787     0.36150
H1165       H  0.99006035  0.55772018  0.22213587     0.16520
O1166       O  0.97851600  0.51907850  0.16349889    -0.60400
H1167       H  0.52865862  0.62031367  0.11240439     0.16530
O1168       O  0.53421085  0.66064275  0.16841081    -0.60500
H1169       H  0.51617420  0.67363818  0.15538329     0.43530
H1170       H  0.99167044  0.00624133  0.18171303     0.43480
C1171       C  0.97983009  0.58665436  0.34048694    -0.05580
C1172       C  0.45726544  0.57818578  0.31061784    -0.33010
C1173       C  0.46574252  0.59271793  0.27662011     0.36240
C1174       C  0.99924428  0.61244832  0.27161049    -0.05940
C1175       C  0.02005306  0.62119664  0.30313728    -0.32910
C1176       C  0.00975273  0.61047444  0.33659908     0.36150
H1177       H  0.43366037  0.56005386  0.31343892     0.16520
O1178       O  0.44074178  0.58910982  0.24916792    -0.60400
H1179       H  0.04378767  0.63930941  0.30363722     0.16530
O1180       O  0.03105088  0.62124963  0.36580071    -0.60500
H1181       H  0.05447110  0.61182241  0.36149181     0.43530
H1182       H  0.43333369  0.56314458  0.24671100     0.43480
C1183       C  0.48179045  0.66150839  0.23404433    -0.05580
C1184       C  0.45819544  0.66188052  0.20411409    -0.33010
C1185       C  0.42830596  0.68111100  0.20460202     0.36240
C1186       C  0.41968482  0.69955412  0.23595012    -0.05940
C1187       C  0.44381188  0.70255837  0.26478204    -0.32910
C1188       C  0.47497705  0.68447175  0.26397813     0.36150
H1189       H  0.46056678  0.64553761  0.18039112     0.16520
O1190       O  0.40671343  0.68062649  0.17439189    -0.60400
H1191       H  0.43761663  0.71725760  0.28886286     0.16530
O1192       O  0.49704352  0.68717354  0.29383542    -0.60500
H1193       H  0.50215348  0.71308913  0.29943986     0.43530
H1194       H  0.39422580  0.65627234  0.17295808     0.43480
C1195       C  0.04926281  0.64782717  0.24080683    -0.05580
C1196       C  0.07513961  0.62262909  0.24525454    -0.33010
C1197       C  0.11049700  0.63326158  0.25504256     0.36240
C1198       C  0.12122518  0.66963881  0.26053706    -0.05940
C1199       C  0.09619025  0.69489031  0.25530592    -0.32910
C1200       C  0.06094174  0.68459975  0.24443961     0.36150
H1201       H  0.06743254  0.59423700  0.24205668     0.16520
O1202       O  0.13494830  0.60811754  0.25657792    -0.60400
H1203       H  0.10500957  0.72317981  0.25628263     0.16530
O1204       O  0.03943429  0.71058321  0.23420654    -0.60500
H1205       H  0.04104976  0.72895112  0.25380077     0.43530
H1206       H  0.13593286  0.60115955  0.28210813     0.43480
C1207       C  0.50956590  0.63269116  0.73640336    -0.02600
O1208       O  0.45816596  0.56232767  0.89628100    -0.86600
O1209       O  0.12306454  0.97372717  0.95655883    -0.86770
O1210       O  0.07620263  0.58524726  0.92025091    -0.88440
O1211       O  0.04271729  0.97945757  0.86361335    -0.87190
O1212       O  0.00484929  0.93163274  0.87939427    -0.86780
O1213       O  0.07429652  0.60595326  0.97865870    -0.88150
O1214       O  0.10860299  0.00738634  0.90838285    -0.86630
O1215       O  0.01198000  0.54984791  0.87327274    -0.86220
Zr1216     Zr  0.04785049  0.52205330  0.91587964     2.84310
O1217       O  0.04626118  0.96400821  0.93819654    -1.08190
O1218       O  0.01557980  0.55767571  0.95331917    -1.08920
C1219       C  0.98202937  0.56379908  0.87169239     1.06510
C1220       C  0.13042915  0.98938329  0.92629819     1.06450
C1221       C  0.08223235  0.60968085  0.94559887     1.09430
C1222       C  0.02544160  0.94845956  0.85697476     1.07210
H1223       H  0.09700973  0.53632739  0.97238464     0.32770
O1224       O  0.07275925  0.52607276  0.97369363    -1.29150
H1225       H  0.47762651  0.99570739  0.89460695     0.32440
O1226       O  0.98854536  0.99771528  0.91828909    -1.30830
O1227       O  0.06789861  0.94565747  0.55851386    -0.86600
O1228       O  0.40307793  0.52804275  0.99427113    -0.88090
O1229       O  0.10084282  0.55748214  0.53934062    -0.86670
O1230       O  0.02283324  0.88686983  0.94622622    -0.86720
O1231       O  0.42708379  0.94318665  0.91238216    -0.86440
O1232       O  0.00691889  0.61529873  0.50374360    -0.86240
O1233       O  0.48703918  0.52116975  0.58987918    -0.86610
O1234       O  0.44823426  0.91814149  0.53191768    -0.86070
O1235       O  0.02497265  0.56865695  0.57348391    -0.87140
O1236       O  0.45110796  0.89759824  0.97350518    -0.86300
O1237       O  0.11604128  0.00025983  0.52848454    -0.86690
O1238       O  0.45682429  0.59635190  0.97066544    -0.86420
O1239       O  0.41097860  0.99995977  0.92444717    -0.86070
O1240       O  0.07079997  0.90656645  0.98201331    -0.86470
O1241       O  0.01077332  0.94972334  0.57722337    -0.86770
O1242       O  0.41755488  0.99468383  0.54259488    -0.88110
Zr1243     Zr  0.07001458  0.96837215  0.99635974     2.83100
Zr1244     Zr  0.45655824  0.53407197  0.95577626     2.83500
Zr1245     Zr  0.04049950  0.56162839  0.51141493     2.84090
Zr1246     Zr  0.98703264  0.93995910  0.94080200     2.83360
Zr1247     Zr  0.47809137  0.98034228  0.53558165     2.84220
O1248       O  0.45411594  0.97612886  0.97756515    -1.08680
O1249       O  0.03752902  0.00392489  0.53365484    -1.08180
C1250       C  0.04295082  0.94237235  0.58203691     1.06480
C1251       C  0.39569687  0.51210439  0.52427777     1.09100
C1252       C  0.12214700  0.53187846  0.54122913     1.06650
C1253       C  0.05267644  0.88240724  0.96305193     1.07010
C1254       C  0.40541627  0.96843900  0.91100201     1.06590
C1255       C  0.47758841  0.62076241  0.98659727     1.06150
C1256       C  0.00549103  0.55164575  0.59665974     1.06570
C1257       C  0.44242933  0.89401663  0.50636810     1.06080
H1258       H  0.46704904  0.55379107  0.52877143     0.32760
O1259       O  0.48059019  0.53867829  0.51395334    -1.29780
H1260       H  0.01142374  0.92062144  0.50948740     0.32790
O1261       O  0.01130235  0.94406424  0.99920484    -1.31160
C1262       C  0.25837399  0.50518990  0.59857664    -0.02600
O1263       O  0.18121799  0.68917537  0.78073166    -0.86600
O1264       O  0.24747428  0.77577128  0.61051280    -0.86770
O1265       O  0.15327328  0.75853175  0.69413416    -0.88440
O1266       O  0.20918039  0.66340325  0.66055682    -0.87190
O1267       O  0.26464504  0.64553768  0.67438528    -0.86780
O1268       O  0.17353294  0.80530925  0.73093140    -0.88150
O1269       O  0.19937291  0.73872555  0.62662739    -0.86630
O1270       O  0.16323331  0.68891570  0.72126435    -0.86220
Zr1271     Zr  0.20640969  0.72334392  0.68888046     2.84310
O1272       O  0.26422956  0.72328255  0.66833009    -1.08190
O1273       O  0.21004713  0.74853041  0.74676822    -1.08920
C1274       C  0.15818370  0.68256789  0.75443515     1.06510
C1275       C  0.21672448  0.75821755  0.60367752     1.06450
C1276       C  0.14905327  0.78782638  0.71215650     1.09430
C1277       C  0.23365376  0.64099585  0.65996659     1.07210
H1278       H  0.21630848  0.79655355  0.67029719     0.32770
O1279       O  0.23095466  0.78267883  0.68532770    -1.29150
H1280       H  0.22914797  0.66592156  0.72958206     0.32440
O1281       O  0.24002192  0.69007525  0.72817160    -1.30830
O1282       O  0.35174794  0.81180066  0.66775627    -0.86600
O1283       O  0.28475835  0.72401792  0.83991898    -0.88090
O1284       O  0.24107150  0.85967271  0.70333848    -0.86670
O1285       O  0.32602415  0.68947489  0.64844594    -0.86720
O1286       O  0.28992778  0.63769928  0.74787305    -0.86440
O1287       O  0.20980539  0.80766180  0.80370574    -0.86240
O1288       O  0.32299970  0.83617313  0.78883052    -0.86610
O1289       O  0.37869316  0.74125833  0.75499805    -0.86070
O1290       O  0.26782430  0.85390933  0.77389898    -0.87140
O1291       O  0.35927079  0.68949857  0.72431856    -0.86300
O1292       O  0.27464594  0.84399022  0.65577501    -0.86690
O1293       O  0.21381673  0.75111982  0.82574425    -0.86420
O1294       O  0.25636636  0.65433347  0.79498732    -0.86070
O1295       O  0.31292368  0.74221118  0.62250398    -0.86470
O1296       O  0.36981540  0.80926616  0.72692540    -0.86770
O1297       O  0.33297995  0.76039290  0.82292561    -0.88110
Zr1298     Zr  0.28889474  0.78250820  0.66389684     2.83100
Zr1299     Zr  0.24413093  0.71574511  0.78566692     2.83500
Zr1300     Zr  0.23523383  0.80700651  0.74326358     2.84090
Zr1301     Zr  0.29788535  0.69040260  0.70764324     2.83360
Zr1302     Zr  0.32629681  0.77566063  0.76048579     2.84220
O1303       O  0.30233026  0.71600064  0.76510808    -1.08680
O1304       O  0.29254512  0.80839205  0.72150958    -1.08180
C1305       C  0.37478643  0.81835247  0.69428023     1.06480
C1306       C  0.31559398  0.74161126  0.84641432     1.09100
C1307       C  0.25710321  0.86651648  0.67335278     1.06650
C1308       C  0.32680822  0.71201631  0.62246387     1.07010
C1309       C  0.27355185  0.63136038  0.77782643     1.06590
C1310       C  0.20590642  0.78361187  0.82818974     1.06150
C1311       C  0.29838131  0.85858349  0.78915323     1.06570
C1312       C  0.38363087  0.71106943  0.73921735     1.06080
H1313       H  0.27134980  0.78623728  0.80576795     0.32760
O1314       O  0.26933998  0.77488292  0.78229156    -1.29780
H1315       H  0.34598251  0.74859533  0.69294480     0.32790
O1316       O  0.32260903  0.74933937  0.70285021    -1.31160
C1317       C  0.13924503  0.75900839  0.96218856    -0.02600
C1318       C  0.02434624  0.87051533  0.71645997    -0.02600
C1319       C  0.39264218  0.74417879  0.98840479    -0.02600
C1320       C  0.26871632  0.99257373  0.85224284    -0.02600
C1321       C  0.15854327  0.76850115  0.92674091    -0.05580
C1322       C  0.19550980  0.76817369  0.92322486    -0.33010
C1323       C  0.21233495  0.78187163  0.89294312     0.36240
C1324       C  0.19206398  0.79162081  0.86306481    -0.05940
C1325       C  0.15540824  0.79105900  0.86526713    -0.32910
C1326       C  0.13845493  0.77868449  0.89600838     0.36150
H1327       H  0.21174663  0.75603053  0.94296651     0.16520
O1328       O  0.24847275  0.78065484  0.89053551    -0.60400
H1329       H  0.13948969  0.79647443  0.84170853     0.16530
O1330       O  0.10196789  0.77667105  0.89560504    -0.60500
H1331       H  0.09416368  0.75703228  0.87828438     0.43530
H1332       H  0.25862904  0.80531188  0.89661125     0.43480
C1333       C  0.16138391  0.75988601  0.49873815    -0.05580
C1334       C  0.19537054  0.77876353  0.50492870    -0.33010
C1335       C  0.21400646  0.77818556  0.53811326     0.36240
C1336       C  0.19861445  0.75994570  0.56736283    -0.05940
C1337       C  0.16401861  0.74311574  0.56217248    -0.32910
C1338       C  0.14548959  0.74358623  0.52919076     0.36150
H1339       H  0.20812048  0.79525366  0.98487398     0.16520
O1340       O  0.24697218  0.79638801  0.54163255    -0.60400
H1341       H  0.15053108  0.72953925  0.58406815     0.16530
O1342       O  0.11148702  0.72750385  0.52707158    -0.60500
H1343       H  0.09636973  0.74498480  0.53811507     0.43530
H1344       H  0.26388251  0.77935581  0.53300240     0.43480
C1345       C  0.36891835  0.74345120  0.95281296    -0.05580
C1346       C  0.38656299  0.75485274  0.92143358    -0.33010
C1347       C  0.37013540  0.75249723  0.88745625     0.36240
C1348       C  0.33349434  0.74126922  0.88311484    -0.05940
C1349       C  0.31455354  0.73259517  0.91441294    -0.32910
C1350       C  0.33151665  0.73414372  0.94900425     0.36150
H1351       H  0.41464879  0.76371906  0.92306761     0.16520
O1352       O  0.39086637  0.76105158  0.85850761    -0.60400
H1353       H  0.28613911  0.72566352  0.91230711     0.16530
O1354       O  0.31063944  0.73064245  0.97870513    -0.60500
H1355       H  0.29397599  0.70904340  0.97442532     0.43510
H1356       H  0.39989342  0.73814618  0.85046628     0.43480
C1357       C  0.35016276  0.70885899  0.59192887    -0.05580
C1358       C  0.34091924  0.68767663  0.56119702    -0.33010
C1359       C  0.35511729  0.69765300  0.52744644     0.36240
C1360       C  0.37374701  0.73202118  0.52354955    -0.05940
C1361       C  0.38282513  0.75172304  0.55575264    -0.32910
C1362       C  0.37463748  0.73850878  0.58899025     0.36150
H1363       H  0.32257458  0.66404902  0.56322968     0.16520
O1364       O  0.35162434  0.67383498  0.49881958    -0.60400
H1365       H  0.39947520  0.77652900  0.55663079     0.16530
O1366       O  0.38640464  0.75823854  0.61890648    -0.60500
H1367       H  0.40437269  0.74404560  0.63052048     0.43530
H1368       H  0.32673366  0.66300641  0.49844973     0.43480
C1369       C  0.30126889  0.89196319  0.80995229    -0.05580
C1370       C  0.27713620  0.89254613  0.83786905    -0.33010
C1371       C  0.26070770  0.92341222  0.84688834     0.36240
C1372       C  0.27083526  0.95679749  0.83042979    -0.05940
C1373       C  0.29625504  0.95567311  0.80279973    -0.32910
C1374       C  0.31085291  0.92392901  0.79245777     0.36150
H1375       H  0.26792250  0.86763870  0.85039118     0.16520
O1376       O  0.23661994  0.92065100  0.87397331    -0.60400
H1377       H  0.30675756  0.97994053  0.79028448     0.16530
O1378       O  0.33318650  0.92404648  0.76388583    -0.60500
H1379       H  0.35709939  0.93181620  0.77413735     0.43530
H1380       H  0.21437883  0.90922563  0.86270535     0.43480
C1381       C  0.27378050  0.59552777  0.79491835    -0.05580
C1382       C  0.26476108  0.56353511  0.77535646    -0.33010
C1383       C  0.26040643  0.53015686  0.79270288     0.36240
C1384       C  0.26771068  0.52783018  0.83025536    -0.05940
C1385       C  0.27465541  0.56051919  0.84956023    -0.32910
C1386       C  0.27808915  0.59356343  0.83248797     0.36150
H1387       H  0.25928034  0.56456884  0.74675521     0.16520
O1388       O  0.24768619  0.50060273  0.77275378    -0.60400
H1389       H  0.27911641  0.56032944  0.87832406     0.16530
O1390       O  0.28586145  0.62404597  0.85306379    -0.60500
H1391       H  0.31218256  0.62809011  0.85329035     0.43530
H1392       H  0.22190757  0.50314530  0.76905632     0.43480
C1393       C  0.48454798  0.85627586  0.70777155    -0.05580
C1394       C  0.45670072  0.87253451  0.72522988    -0.33010
C1395       C  0.42091234  0.86423166  0.71627219     0.36240
C1396       C  0.41048585  0.83779923  0.69013719    -0.05940
C1397       C  0.43730144  0.82350581  0.67006204    -0.32910
C1398       C  0.47394008  0.83340815  0.67772381     0.36150
H1399       H  0.46201483  0.89313483  0.74569454     0.16520
O1400       O  0.39577986  0.88044563  0.73545958    -0.60400
H1401       H  0.43010368  0.80377119  0.64920381     0.16530
O1402       O  0.49909098  0.82184072  0.65499609    -0.60500
H1403       H  0.49246295  0.79613569  0.64949214     0.43530
H1404       H  0.38908316  0.90048695  0.72037342     0.43480
C1405       C  0.11517870  0.80563722  0.71224648    -0.05580
C1406       C  0.08112680  0.78717570  0.71151562    -0.33010
C1407       C  0.04999197  0.80583570  0.71637247     0.36240
C1408       C  0.05338233  0.84363390  0.72119238    -0.05940
C1409       C  0.08803025  0.86049493  0.72552168    -0.32910
C1410       C  0.11783963  0.84295994  0.71875627     0.36150
H1411       H  0.07889199  0.75850933  0.70738831     0.16520
O1412       O  0.01730322  0.78710414  0.71876935    -0.60400
H1413       H  0.09222823  0.88924470  0.72926522     0.16530
O1414       O  0.14963620  0.86344717  0.71620588    -0.60500
H1415       H  0.15633324  0.87165153  0.74108464     0.43530
H1416       H  0.01592525  0.76832359  0.69958613     0.43480
C1417       C  0.25869245  0.96954347  0.62013282    -0.05580
C1418       C  0.26554310  0.96789437  0.65762524    -0.33010
C1419       C  0.26269857  0.93498226  0.67584717     0.36240
C1420       C  0.25550210  0.90237948  0.65658230    -0.05940
C1421       C  0.25063532  0.90370273  0.61926209    -0.32910
C1422       C  0.25220240  0.93629371  0.60121473     0.36150
H1423       H  0.27378441  0.99187160  0.67313206     0.16520
O1424       O  0.26901601  0.93492688  0.71220046    -0.60400
H1425       H  0.24556470  0.87902980  0.60369252     0.16530
O1426       O  0.24622205  0.93533887  0.56475982    -0.60500
H1427       H  0.26781726  0.92616561  0.55438187     0.43530
H1428       H  0.24552703  0.93740649  0.72306247     0.43480
C1429       C  0.25708484  0.54157403  0.61941064    -0.05580
C1430       C  0.23518061  0.54381835  0.64978947    -0.33010
C1431       C  0.22212953  0.57604717  0.66077609     0.36240
C1432       C  0.22913985  0.60704168  0.64081918    -0.05940
C1433       C  0.24985442  0.60548742  0.61048033    -0.32910
C1434       C  0.26501199  0.57420341  0.60050606     0.36150
H1435       H  0.22602281  0.52040994  0.66436544     0.16520
O1436       O  0.20464187  0.57762230  0.69262801    -0.60400
H1437       H  0.25769880  0.62996068  0.59649233     0.16530
O1438       O  0.28771216  0.57603779  0.57202082    -0.60500
H1439       H  0.27515527  0.58708596  0.55191157     0.43530
H1440       H  0.17904984  0.57301030  0.68608088     0.43480
C1441       C  0.04915952  0.92983669  0.61840724    -0.05580
C1442       C  0.02880647  0.94434349  0.64548465    -0.33010
C1443       C  0.01982919  0.92539695  0.67616134     0.36240
C1444       C  0.03514819  0.89313726  0.68310037    -0.05940
C1445       C  0.05737151  0.87979168  0.65602302    -0.32910
C1446       C  0.06457874  0.89797222  0.62437484     0.36150
H1447       H  0.01594951  0.96858571  0.64051374     0.16520
O1448       O  0.99319184  0.93665763  0.69707043    -0.60400
H1449       H  0.06751450  0.85369985  0.65760140     0.16530
O1450       O  0.08296322  0.88214769  0.59786466    -0.60500
H1451       H  0.10820030  0.89102941  0.60221784     0.43530
H1452       H  0.00355034  0.95818380  0.71043485     0.43480
C1453       C  0.02717812  0.89199446  0.75336951    -0.05580
C1454       C  0.04289236  0.92759412  0.75763992    -0.33010
C1455       C  0.04275740  0.94653558  0.79070070     0.36240
C1456       C  0.02866922  0.92959477  0.82137822    -0.05940
C1457       C  0.01656874  0.89306768  0.81806148    -0.32910
C1458       C  0.01598925  0.87445520  0.78507069     0.36150
H1459       H  0.05575387  0.94114643  0.73548324     0.16520
O1460       O  0.05653019  0.98155086  0.79250057    -0.60400
H1461       H  0.00704790  0.87847004  0.84126881     0.16530
O1462       O  0.00442923  0.83872038  0.78399166    -0.60500
H1463       H  0.47852980  0.83763356  0.78846651     0.43530
H1464       H  0.03651924  0.99577430  0.78546658     0.43480
C1465       C  0.23372281  0.99173402  0.87454363    -0.05580
C1466       C  0.20125454  0.98362929  0.85542479    -0.33010
C1467       C  0.16827217  0.98138639  0.87232101     0.36240
C1468       C  0.16616199  0.98727121  0.90967350    -0.05940
C1469       C  0.19805041  0.99632137  0.92917726    -0.32910
C1470       C  0.23134704  0.99982128  0.91194545     0.36150
H1471       H  0.20149541  0.47821549  0.82681269     0.16520
O1472       O  0.13799277  0.97258789  0.85193489    -0.60400
H1473       H  0.19702094  0.00271373  0.95758420     0.16530
O1474       O  0.26076706  0.01270495  0.93180736    -0.60500
H1475       H  0.25781868  0.03846771  0.93622336     0.43530
H1476       H  0.13296967  0.49485644  0.83946129     0.43480
C1477       C  0.37140208  0.96468116  0.89164378    -0.05580
C1478       C  0.36880697  0.98917741  0.86415020    -0.33010
C1479       C  0.33720046  0.50451039  0.85653042     0.36240
C1480       C  0.30484151  0.99228164  0.87352828    -0.05940
C1481       C  0.30796850  0.96651135  0.90078663    -0.32910
C1482       C  0.34063799  0.95329180  0.91002654     0.36150
H1483       H  0.39274934  0.49969196  0.85095583     0.16520
O1484       O  0.33828087  0.52948795  0.83003261    -0.60400
H1485       H  0.28462444  0.95474990  0.91379256     0.16530
O1486       O  0.34255508  0.93056659  0.93832883    -0.60500
H1487       H  0.33957293  0.90613165  0.92744216     0.43530
H1488       H  0.34917927  0.55193094  0.84156172     0.43480
C1489       C  0.15679886  0.53570863  0.55924634    -0.05580
C1490       C  0.15928333  0.51424637  0.58924169    -0.33010
C1491       C  0.19007507  0.49749180  0.59714621     0.36240
C1492       C  0.22203445  0.50559836  0.57777169    -0.05940
C1493       C  0.21897434  0.52780276  0.54754602    -0.32910
C1494       C  0.18690276  0.54203379  0.53806284     0.36150
H1495       H  0.13562674  0.50696405  0.60445238     0.16520
O1496       O  0.18901740  0.47535216  0.62608753    -0.60400
H1497       H  0.24168867  0.53628780  0.53192876     0.16530
O1498       O  0.18455988  0.56018965  0.00655846    -0.60500
H1499       H  0.19045109  0.58574425  0.01325195     0.43530
H1500       H  0.17820454  0.45192292  0.61674194     0.43480
C1501       C  0.35997029  0.51331604  0.54047010    -0.05580
C1502       C  0.35858837  0.51894909  0.57766783    -0.33010
C1503       C  0.32647172  0.51506904  0.59586309     0.36240
C1504       C  0.29367569  0.50622376  0.57705860    -0.05940
C1505       C  0.29544664  0.49893020  0.53969929    -0.32910
C1506       C  0.32797171  0.50322815  0.52144071     0.36150
H1507       H  0.38293929  0.52588378  0.59309131     0.16520
O1508       O  0.32732975  0.52128619  0.63228569    -0.60400
H1509       H  0.27190966  0.48908434  0.52442057     0.16530
O1510       O  0.32842012  0.49522323  0.98544145    -0.60500
H1511       H  0.32610497  0.51832087  0.97336878     0.43530
H1512       H  0.33702342  0.49988208  0.64283437     0.43480
C1513       C  0.42296780  0.71750237  0.98485169    -0.05580
C1514       C  0.42354267  0.69401858  0.95466536    -0.33010
C1515       C  0.44486777  0.66543089  0.95362136     0.36240
C1516       C  0.46516598  0.65717635  0.98396143    -0.05940
C1517       C  0.46790697  0.68130915  0.51298333    -0.32910
C1518       C  0.44742576  0.71120026  0.51376435     0.36150
H1519       H  0.40576430  0.69509482  0.93187328     0.16520
O1520       O  0.44453190  0.64454877  0.92286690    -0.60400
H1521       H  0.48411062  0.67579872  0.53627298     0.16530
O1522       O  0.45085700  0.73324281  0.54364411    -0.60500
H1523       H  0.44462242  0.71789628  0.56440331     0.43530
H1524       H  0.42086266  0.63086711  0.92174243     0.43480
C1525       C  0.42836447  0.85721037  0.51352878    -0.05580
C1526       C  0.39260390  0.84702850  0.00574872    -0.33010
C1527       C  0.38127568  0.81125719  0.99695074     0.36240
C1528       C  0.40625736  0.78469221  0.99351943    -0.05940
C1529       C  0.44240341  0.79597985  0.50014168    -0.32910
C1530       C  0.45289314  0.83094614  0.51242483     0.36150
H1531       H  0.37350873  0.86714437  0.00506445     0.16520
O1532       O  0.34544809  0.80237010  0.99251615    -0.60400
H1533       H  0.46285296  0.77780483  0.49683649     0.16530
O1534       O  0.48805637  0.84024787  0.52074497    -0.60500
H1535       H  0.49046121  0.83659356  0.54694616     0.43530
H1536       H  0.33894114  0.81191540  0.96881655     0.43480
C1537       C  0.09820745  0.64611918  0.93812711    -0.05580
C1538       C  0.13372624  0.65502280  0.94837386    -0.33010
C1539       C  0.14657288  0.69073846  0.95592887     0.36240
C1540       C  0.12375483  0.71932818  0.95372343    -0.05940
C1541       C  0.08902153  0.70997501  0.93967605    -0.32910
C1542       C  0.07590570  0.67409396  0.93348918     0.36150
H1543       H  0.15116431  0.63385948  0.95299922     0.16520
O1544       O  0.18177784  0.69726496  0.46580384    -0.60400
H1545       H  0.07120457  0.72981070  0.93278907     0.16530
O1546       O  0.04022237  0.66636715  0.92624859    -0.60500
H1547       H  0.03477697  0.67968953  0.90430134     0.43530
H1548       H  0.18383785  0.68815792  0.49053719     0.43480
C1549       C  0.07100452  0.84889314  0.96038930    -0.05580
C1550       C  0.10807884  0.85382315  0.95945518    -0.33010
C1551       C  0.12937900  0.82585701  0.96398809     0.36240
C1552       C  0.11422184  0.79003863  0.96755409    -0.05940
C1553       C  0.07687497  0.78555930  0.97185968    -0.32910
C1554       C  0.05525973  0.81420936  0.96619522     0.36150
H1555       H  0.12123996  0.88031403  0.95576419     0.16520
O1556       O  0.16549974  0.83398568  0.96353719    -0.60400
H1557       H  0.06403956  0.76023267  0.47976031     0.16530
O1558       O  0.01909148  0.80797743  0.46693055    -0.60500
H1559       H  0.01160784  0.80137253  0.44186224     0.43530
H1560       H  0.17096220  0.84232314  0.93896581     0.43480
C1561       C  0.00897684  0.60918768  0.70081676    -0.05580
C1562       C  0.99700522  0.57241623  0.69835401    -0.33010
C1563       C  0.99369753  0.55354026  0.66486653     0.36240
C1564       C  0.00532344  0.57018255  0.63305229    -0.05940
C1565       C  0.51928115  0.60615609  0.63592499    -0.32910
C1566       C  0.52098530  0.62537698  0.66851705     0.36150
H1567       H  0.99006927  0.55771911  0.72213783     0.16520
O1568       O  0.97853360  0.51907334  0.66350429    -0.60400
H1569       H  0.52865409  0.62031478  0.61240306     0.16530
O1570       O  0.53420540  0.66064485  0.66840933    -0.60500
H1571       H  0.51616815  0.67363808  0.65538016     0.43530
H1572       H  0.99168447  0.00624078  0.68171578     0.43480
C1573       C  0.97982645  0.58665395  0.84048495    -0.05580
C1574       C  0.45726360  0.57818407  0.81061481    -0.33010
C1575       C  0.46574173  0.59271633  0.77661743     0.36240
C1576       C  0.99924293  0.61244829  0.77160939    -0.05940
C1577       C  0.02005014  0.62119745  0.80313688    -0.32910
C1578       C  0.00974849  0.61047515  0.83659830     0.36150
H1579       H  0.43365925  0.56005091  0.81343478     0.16520
O1580       O  0.44074276  0.58910600  0.74916373    -0.60400
H1581       H  0.04378438  0.63931080  0.80363737     0.16530
O1582       O  0.03104498  0.62125111  0.86580083    -0.60500
H1583       H  0.05446605  0.61182544  0.86149277     0.43530
H1584       H  0.43333789  0.56314016  0.74670588     0.43480
C1585       C  0.48178925  0.66150817  0.73404352    -0.05580
C1586       C  0.45819329  0.66187883  0.70411393    -0.33010
C1587       C  0.42830421  0.68110986  0.70460147     0.36240
C1588       C  0.41968368  0.69955432  0.73594905    -0.05940
C1589       C  0.44381126  0.70255916  0.76478063    -0.32910
C1590       C  0.47497643  0.68447244  0.76397674     0.36150
H1591       H  0.46056362  0.64553443  0.68039180     0.16520
O1592       O  0.40671162  0.68062482  0.67439134    -0.60400
H1593       H  0.43761659  0.71725925  0.78886110     0.16530
O1594       O  0.49704358  0.68717517  0.79383352    -0.60500
H1595       H  0.50215358  0.71309091  0.79943715     0.43530
H1596       H  0.39422362  0.65627080  0.67295824     0.43480
C1597       C  0.04926186  0.64782759  0.74080654    -0.05580
C1598       C  0.07513864  0.62262967  0.74525540    -0.33010
C1599       C  0.11049614  0.63326250  0.75504270     0.36240
C1600       C  0.12122431  0.66963990  0.76053566    -0.05940
C1601       C  0.09618926  0.69489119  0.75530353    -0.32910
C1602       C  0.06094075  0.68460023  0.74443752     0.36150
H1603       H  0.06743159  0.59423747  0.74205864     0.16520
O1604       O  0.13494748  0.60811854  0.75657867    -0.60400
H1605       H  0.10500855  0.72318069  0.75627928     0.16530
O1606       O  0.03943336  0.71058314  0.73420272    -0.60500
H1607       H  0.04104804  0.72895162  0.75379640     0.43530
H1608       H  0.13593250  0.60116159  0.78210916     0.43480
C1609       C  0.00956221  0.13268787  0.23640831    -0.02600
O1610       O  0.95811604  0.06232649  0.39628145    -0.86600
O1611       O  0.62307220  0.47372074  0.45655764    -0.86770
O1612       O  0.57617453  0.08524351  0.42025660    -0.88440
O1613       O  0.54272605  0.47945813  0.36361319    -0.87190
O1614       O  0.50485539  0.43163496  0.37939360    -0.86780
O1615       O  0.57423205  0.10595775  0.47865777    -0.88150
O1616       O  0.60861408  0.50738426  0.40838353    -0.86630
O1617       O  0.51193320  0.04984685  0.37327765    -0.86220
Zr1618     Zr  0.54780557  0.02205630  0.41588262     2.84310
O1619       O  0.54627018  0.46400760  0.43819574    -1.08190
O1620       O  0.51551188  0.05767077  0.45331258    -1.08920
C1621       C  0.48198433  0.06380058  0.37169583     1.06510
C1622       C  0.63043802  0.48937846  0.42629831     1.06450
C1623       C  0.58219294  0.10967957  0.44560371     1.09430
C1624       C  0.52544802  0.44846128  0.35697445     1.07210
H1625       H  0.59695618  0.03634843  0.47239149     0.32770
O1626       O  0.57270749  0.02608776  0.47369747    -1.29150
H1627       H  0.97764007  0.49570869  0.39460276     0.32440
O1628       O  0.48855898  0.49771577  0.41828490    -1.30830
O1629       O  0.56792998  0.44565495  0.05851882    -0.86600
O1630       O  0.90299439  0.02799795  0.49427500    -0.88090
O1631       O  0.60081990  0.05749590  0.03933350    -0.86670
O1632       O  0.52283804  0.38686783  0.44622373    -0.86720
O1633       O  0.92709234  0.44318976  0.41238154    -0.86440
O1634       O  0.50690010  0.11530000  0.00373956    -0.86240
O1635       O  0.98703255  0.02117057  0.08988153    -0.86610
O1636       O  0.94826743  0.41815056  0.03191296    -0.86070
O1637       O  0.52496024  0.06866057  0.07348248    -0.87140
O1638       O  0.95111201  0.39760341  0.47350394    -0.86300
O1639       O  0.61611643  0.50020455  0.02846083    -0.86690
O1640       O  0.95675541  0.09634892  0.47065996    -0.86420
O1641       O  0.91099369  0.49996558  0.42444356    -0.86070
O1642       O  0.57080559  0.40656124  0.48201120    -0.86470
O1643       O  0.51080106  0.44970823  0.07722137    -0.86770
O1644       O  0.91762674  0.49471078  0.04258186    -0.88110
Zr1645     Zr  0.57002390  0.46836744  0.49635893     2.83100
Zr1646     Zr  0.95648969  0.03406271  0.45577850     2.83500
Zr1647     Zr  0.54048004  0.06163096  0.01141155     2.84090
Zr1648     Zr  0.48704110  0.43995996  0.44080027     2.83360
Zr1649     Zr  0.97814700  0.48034383  0.03557641     2.84220
O1650       O  0.95412713  0.47613282  0.47756126    -1.08680
O1651       O  0.53758816  0.50391740  0.03365977    -1.08180
C1652       C  0.54297963  0.44236543  0.08203952     1.06480
C1653       C  0.89567692  0.01209039  0.02430104     1.09100
C1654       C  0.62212681  0.03189648  0.04122129     1.06650
C1655       C  0.55268082  0.38240321  0.46304940     1.07010
C1656       C  0.90542746  0.46844427  0.41100034     1.06590
C1657       C  0.97752534  0.12075954  0.48658671     1.06150
C1658       C  0.50548296  0.05164759  0.09666059     1.06570
C1659       C  0.94245065  0.39402718  0.00636324     1.06080
H1660       H  0.96703230  0.05378947  0.02877514     0.32760
O1661       O  0.98057325  0.03867697  0.01395659    -1.29780
H1662       H  0.51145539  0.42061142  0.00948264     0.32790
O1663       O  0.51131082  0.44406238  0.49920232    -1.31160
C1664       C  0.75831287  0.00518447  0.09858130    -0.02600
O1665       O  0.68121781  0.18917851  0.28072725    -0.86600
O1666       O  0.74747578  0.27577528  0.11051101    -0.86770
O1667       O  0.65327193  0.25853890  0.19413700    -0.88440
O1668       O  0.70918117  0.16342671  0.16055309    -0.87190
O1669       O  0.76464929  0.14555984  0.17436644    -0.86780
O1670       O  0.67354062  0.30532546  0.23091781    -0.88150
O1671       O  0.69937189  0.23873474  0.12662792    -0.86630
O1672       O  0.66323158  0.18892603  0.22126110    -0.86220
Zr1673     Zr  0.70641025  0.22335825  0.18888097     2.84310
O1674       O  0.76422922  0.22328655  0.16833004    -1.08190
O1675       O  0.71005015  0.24854458  0.24676670    -1.08920
C1676       C  0.65818269  0.18257322  0.25443120     1.06510
C1677       C  0.71672483  0.25822330  0.10367672     1.06450
C1678       C  0.64905597  0.28783746  0.21215329     1.09430
C1679       C  0.73365606  0.14102309  0.15995291     1.07210
H1680       H  0.71631586  0.29656851  0.17029141     0.32770
O1681       O  0.73095914  0.28269149  0.18532267    -1.29150
H1682       H  0.72914578  0.16592813  0.22957589     0.32440
O1683       O  0.74002086  0.19008156  0.22816687    -1.30830
O1684       O  0.85175253  0.31179724  0.16775195    -0.86600
O1685       O  0.78475428  0.22402110  0.33991326    -0.88090
O1686       O  0.74112167  0.35969537  0.20333967    -0.86670
O1687       O  0.82602788  0.18947838  0.14844567    -0.86720
O1688       O  0.78992368  0.13770080  0.24786845    -0.86440
O1689       O  0.70981112  0.30766921  0.30370376    -0.86240
O1690       O  0.82300687  0.33617388  0.28882920    -0.86610
O1691       O  0.87869419  0.24125858  0.25499474    -0.86070
O1692       O  0.76783199  0.35391510  0.27390291    -0.87140
O1693       O  0.85927133  0.18949917  0.22431515    -0.86300
O1694       O  0.77469100  0.34399666  0.15577850    -0.86690
O1695       O  0.71381737  0.25112472  0.32573873    -0.86420
O1696       O  0.75636416  0.15433817  0.29498267    -0.86070
O1697       O  0.81292469  0.24221135  0.12249913    -0.86470
O1698       O  0.86981639  0.30926986  0.22692262    -0.86770
O1699       O  0.83297700  0.26039399  0.32291978    -0.88110
Zr1700     Zr  0.78889955  0.28250750  0.16389346     2.83100
Zr1701     Zr  0.74412993  0.21575076  0.28566115     2.83500
Zr1702     Zr  0.73524084  0.30701989  0.24325872     2.84090
Zr1703     Zr  0.79788644  0.19040712  0.20764184     2.83360
Zr1704     Zr  0.82629911  0.27566223  0.26048168     2.84220
O1705       O  0.80233038  0.21600363  0.26510630    -1.08680
O1706       O  0.79255034  0.30839289  0.22150457    -1.08180
C1707       C  0.87478861  0.31835341  0.19427694     1.06480
C1708       C  0.81558973  0.24161400  0.34640830     1.09100
C1709       C  0.75716493  0.36653418  0.17335803     1.06650
C1710       C  0.82681058  0.21201755  0.12246164     1.07010
C1711       C  0.77354776  0.13136311  0.27782224     1.06590
C1712       C  0.70590954  0.28361722  0.32818645     1.06150
C1713       C  0.79838995  0.35858573  0.28915558     1.06570
C1714       C  0.88363150  0.21106964  0.23921405     1.06080
H1715       H  0.77135223  0.28624168  0.30576171     0.32760
O1716       O  0.76934185  0.27488824  0.28228494    -1.29780
H1717       H  0.84598767  0.24859560  0.19294145     0.32790
O1718       O  0.82261424  0.24934066  0.20284669    -1.31160
C1719       C  0.63924544  0.25900034  0.46218506    -0.02600
C1720       C  0.52434530  0.37051665  0.21646148    -0.02600
C1721       C  0.89262983  0.24419440  0.48839686    -0.02600
C1722       C  0.76872318  0.49257225  0.35224493    -0.02600
C1723       C  0.65854356  0.26849050  0.42673605    -0.05580
C1724       C  0.69551012  0.26816398  0.42322004    -0.33010
C1725       C  0.71233602  0.28186814  0.39294058     0.36240
C1726       C  0.69206594  0.29162203  0.36306297    -0.05940
C1727       C  0.65540979  0.29105643  0.36526477    -0.32910
C1728       C  0.63845596  0.27867645  0.39600405     0.36150
H1729       H  0.71174611  0.25601857  0.44296111     0.16520
O1730       O  0.74847416  0.28065407  0.39053395    -0.60400
H1731       H  0.63949145  0.29647428  0.34170679     0.16530
O1732       O  0.60196901  0.27666262  0.39560001    -0.60500
H1733       H  0.59416551  0.25702549  0.37827724     0.43530
H1734       H  0.75862881  0.30531069  0.39661407     0.43480
C1735       C  0.66138749  0.25987775  0.99873519    -0.05580
C1736       C  0.69537454  0.27875506  0.00492422    -0.33010
C1737       C  0.71400883  0.27818273  0.03810995     0.36240
C1738       C  0.69861539  0.25994799  0.06736159    -0.05940
C1739       C  0.66401957  0.24311755  0.06217227    -0.32910
C1740       C  0.64549186  0.24358280  0.02918951     0.36150
H1741       H  0.70812208  0.29524620  0.48486703     0.16520
O1742       O  0.74697423  0.29638597  0.04162831    -0.60400
H1743       H  0.65053105  0.22954460  0.08406941     0.16530
O1744       O  0.61148911  0.22750068  0.02707117    -0.60500
H1745       H  0.59637242  0.24498074  0.03811716     0.43530
H1746       H  0.76388510  0.27935308  0.03300081     0.43480
C1747       C  0.86890600  0.24346927  0.45280702    -0.05580
C1748       C  0.88655001  0.25487727  0.42142954    -0.33010
C1749       C  0.87012634  0.25251289  0.38745153     0.36240
C1750       C  0.83348768  0.24127561  0.38310868    -0.05940
C1751       C  0.81454600  0.23259782  0.41440523    -0.32910
C1752       C  0.83150687  0.23415104  0.44899712     0.36150
H1753       H  0.91463431  0.26374987  0.42306497     0.16520
O1754       O  0.89085923  0.26106581  0.35850380    -0.60400
H1755       H  0.78613298  0.22565818  0.41229751     0.16530
O1756       O  0.81062950  0.23064138  0.47869710    -0.60500
H1757       H  0.79397333  0.20903713  0.47441602     0.43510
H1758       H  0.89989102  0.23816093  0.35046758     0.43480
C1759       C  0.85016513  0.20885963  0.09192726    -0.05580
C1760       C  0.84091543  0.18768389  0.06119269    -0.33010
C1761       C  0.85511031  0.19766461  0.02744234     0.36240
C1762       C  0.87374290  0.23203207  0.02354925    -0.05940
C1763       C  0.88282580  0.25172842  0.05575424    -0.32910
C1764       C  0.87464183  0.23850829  0.08899076     0.36150
H1765       H  0.82256823  0.16405792  0.06322328     0.16520
O1766       O  0.85161198  0.17385099  0.99881202    -0.60400
H1767       H  0.89947703  0.27653371  0.05663374     0.16530
O1768       O  0.88641290  0.25823250  0.11890908    -0.60500
H1769       H  0.90438547  0.24403935  0.13051514     0.43530
H1770       H  0.82672042  0.16302486  0.99844337     0.43480
C1771       C  0.80128083  0.39196367  0.30995693    -0.05580
C1772       C  0.77714808  0.39254591  0.33787358    -0.33010
C1773       C  0.76071726  0.42341089  0.34689126     0.36240
C1774       C  0.77084353  0.45679626  0.33043221    -0.05940
C1775       C  0.79626419  0.45567290  0.30280300    -0.32910
C1776       C  0.81086480  0.42392975  0.29246296     0.36150
H1777       H  0.76793502  0.36763825  0.35039569     0.16520
O1778       O  0.73662847  0.42064858  0.37397526    -0.60400
H1779       H  0.80676560  0.47994059  0.29028746     0.16530
O1780       O  0.83320076  0.42404807  0.26389291    -0.60500
H1781       H  0.85711216  0.43182181  0.27414567     0.43530
H1782       H  0.71438835  0.40922180  0.36270655     0.43480
C1783       C  0.77377298  0.09552971  0.29491501    -0.05580
C1784       C  0.76475511  0.06353700  0.27535262    -0.33010
C1785       C  0.76039422  0.03015899  0.29269911     0.36240
C1786       C  0.76769094  0.02783140  0.33025313    -0.05940
C1787       C  0.77463609  0.06052039  0.34955805    -0.32910
C1788       C  0.77807564  0.09356476  0.33248547     0.36150
H1789       H  0.75927985  0.06457061  0.24675041     0.16520
O1790       O  0.74767533  0.00060597  0.27274775    -0.60400
H1791       H  0.77909295  0.06033041  0.37832245     0.16530
O1792       O  0.78584772  0.12404687  0.35306197    -0.60500
H1793       H  0.81216898  0.12808956  0.35329103     0.43530
H1794       H  0.72189533  0.00314457  0.26905630     0.43480
C1795       C  0.98454752  0.35627847  0.20777078    -0.05580
C1796       C  0.95669978  0.37253908  0.22522630    -0.33010
C1797       C  0.92091181  0.36423531  0.21626788     0.36240
C1798       C  0.91048682  0.33780130  0.19013399    -0.05940
C1799       C  0.93730288  0.32350722  0.17006052    -0.32910
C1800       C  0.97394101  0.33340922  0.17772388     0.36150
H1801       H  0.96201321  0.39314068  0.24568983     0.16520
O1802       O  0.89577835  0.38044930  0.23545393    -0.60400
H1803       H  0.93010581  0.30377165  0.14920297     0.16530
O1804       O  0.99909278  0.32183993  0.15499836    -0.60500
H1805       H  0.99246411  0.29613491  0.14949494     0.43530
H1806       H  0.88908039  0.40048895  0.22036616     0.43480
C1807       C  0.61517955  0.30564454  0.21224956    -0.05580
C1808       C  0.58112860  0.28718001  0.21152000    -0.33010
C1809       C  0.54999232  0.30583769  0.21637743     0.36240
C1810       C  0.55338078  0.34363560  0.22119899    -0.05940
C1811       C  0.58802781  0.36049814  0.22553073    -0.32910
C1812       C  0.61783790  0.34296664  0.21876169     0.36150
H1813       H  0.57889527  0.25851356  0.20739208     0.16520
O1814       O  0.51730408  0.28710456  0.21877201    -0.60400
H1815       H  0.59222474  0.38924776  0.22927521     0.16530
O1816       O  0.64963195  0.36345754  0.21620810    -0.60500
H1817       H  0.65633149  0.37166114  0.24108650     0.43530
H1818       H  0.51592817  0.26832430  0.19958856     0.43480
C1819       C  0.75883747  0.46956549  0.12013652    -0.05580
C1820       C  0.76567491  0.46791593  0.15763114    -0.33010
C1821       C  0.76281160  0.43500353  0.17585358     0.36240
C1822       C  0.75560026  0.40240235  0.15658845    -0.05940
C1823       C  0.75076402  0.40372694  0.11926465    -0.32910
C1824       C  0.75236076  0.43631633  0.10121550     0.36150
H1825       H  0.77390931  0.49189446  0.17313951     0.16520
O1826       O  0.76911922  0.43494568  0.21220807    -0.60400
H1827       H  0.74569182  0.37905553  0.10369291     0.16530
O1828       O  0.74640857  0.43536084  0.06475669    -0.60500
H1829       H  0.76801193  0.42618657  0.05439725     0.43530
H1830       H  0.74563017  0.43744064  0.22306391     0.43480
C1831       C  0.75701814  0.04157893  0.11940078    -0.05580
C1832       C  0.73511249  0.04384229  0.14977672    -0.33010
C1833       C  0.72210631  0.07608582  0.16077529     0.36240
C1834       C  0.72913125  0.10707133  0.14081252    -0.05940
C1835       C  0.74983537  0.10550205  0.11046905    -0.32910
C1836       C  0.76496556  0.07420492  0.10049197     0.36150
H1837       H  0.72591648  0.02044453  0.16434613     0.16520
O1838       O  0.70465471  0.07768335  0.19264663    -0.60400
H1839       H  0.75769244  0.12997041  0.09647812     0.16530
O1840       O  0.78765864  0.07602580  0.07200064    -0.60500
H1841       H  0.77509874  0.08707034  0.05189112     0.43530
H1842       H  0.67905815  0.07303865  0.18613381     0.43480
C1843       C  0.54918477  0.42983405  0.11841181    -0.05580
C1844       C  0.52882938  0.44434523  0.14548556    -0.33010
C1845       C  0.51984044  0.42539830  0.17615944     0.36240
C1846       C  0.53515204  0.39313540  0.18310123    -0.05940
C1847       C  0.55737564  0.37978454  0.15602712    -0.32910
C1848       C  0.56459321  0.39796439  0.12438111     0.36150
H1849       H  0.51597850  0.46859081  0.14051218     0.16520
O1850       O  0.49320063  0.43666266  0.19706311    -0.60400
H1851       H  0.56751179  0.35368966  0.15760683     0.16530
O1852       O  0.58297575  0.38213429  0.09787306    -0.60500
H1853       H  0.60821319  0.39101602  0.10222361     0.43530
H1854       H  0.50355863  0.45818918  0.21042735     0.43480
C1855       C  0.52717512  0.39199729  0.25336975    -0.05580
C1856       C  0.54289174  0.42759610  0.25763968    -0.33010
C1857       C  0.54275992  0.44653723  0.29070044     0.36240
C1858       C  0.52867242  0.42959684  0.32137810    -0.05940
C1859       C  0.51656847  0.39307065  0.31806172    -0.32910
C1860       C  0.51598544  0.37445862  0.28507093     0.36150
H1861       H  0.55575470  0.44114739  0.23548331     0.16520
O1862       O  0.55653590  0.48155146  0.29250043    -0.60400
H1863       H  0.50704786  0.37847329  0.34126933     0.16530
O1864       O  0.50442306  0.33872437  0.28399223    -0.60500
H1865       H  0.97852372  0.33763945  0.28846720     0.43530
H1866       H  0.53652609  0.49577700  0.28546780     0.43480
C1867       C  0.73373009  0.49173076  0.37454558    -0.05580
C1868       C  0.70126226  0.48362462  0.35542639    -0.33010
C1869       C  0.66828013  0.48138021  0.37232243     0.36240
C1870       C  0.66617014  0.48726550  0.40967465    -0.05940
C1871       C  0.69805778  0.49631745  0.42917878    -0.32910
C1872       C  0.73135425  0.49981803  0.41194731     0.36150
H1873       H  0.70146742  0.97821621  0.32681472     0.16520
O1874       O  0.63800081  0.47258049  0.35193649    -0.60400
H1875       H  0.69702763  0.50271105  0.45758550     0.16530
O1876       O  0.76077397  0.51270238  0.43180928    -0.60500
H1877       H  0.75782411  0.53846458  0.43622695     0.43530
H1878       H  0.63294310  0.99486718  0.33946204     0.43480
C1879       C  0.87141203  0.46468761  0.39164395    -0.05580
C1880       C  0.86881488  0.48918475  0.36415153    -0.33010
C1881       C  0.83717746  0.00450138  0.35652528     0.36240
C1882       C  0.80484878  0.49228264  0.37352980    -0.05940
C1883       C  0.80797804  0.46651203  0.40078739    -0.32910
C1884       C  0.84064880  0.45329461  0.41002624     0.36150
H1885       H  0.89272039  0.99965927  0.35093195     0.16520
O1886       O  0.83826272  0.02948962  0.33003760    -0.60400
H1887       H  0.78463479  0.45474847  0.41379316     0.16530
O1888       O  0.84256771  0.43056761  0.43832682    -0.60500
H1889       H  0.83958749  0.40613334  0.42743839     0.43530
H1890       H  0.84916585  0.05192625  0.34157536     0.43480
C1891       C  0.65677373  0.03573587  0.05923792    -0.05580
C1892       C  0.65924566  0.01429109  0.08924563    -0.33010
C1893       C  0.69001967  0.99751087  0.09714819     0.36240
C1894       C  0.72198230  0.00559099  0.07776961    -0.05940
C1895       C  0.71893711  0.02778363  0.04753434    -0.32910
C1896       C  0.68687692  0.04203146  0.03804765     0.36150
H1897       H  0.63558722  0.00703400  0.10446284     0.16520
O1898       O  0.68894570  0.97538273  0.12609836    -0.60400
H1899       H  0.74165480  0.03624841  0.03191329     0.16530
O1900       O  0.68446186  0.06019184  0.50655041    -0.60500
H1901       H  0.69040706  0.08574393  0.51322038     0.43530
H1902       H  0.67815748  0.95194451  0.11675165     0.43480
C1903       C  0.85994129  0.01329510  0.04049006    -0.05580
C1904       C  0.85854206  0.01895538  0.07768440    -0.33010
C1905       C  0.82641318  0.01511982  0.09586241     0.36240
C1906       C  0.79362423  0.00622146  0.07706281    -0.05940
C1907       C  0.79541287  0.99890317  0.03970691    -0.32910
C1908       C  0.82794548  0.00320454  0.02145481     0.36150
H1909       H  0.88288580  0.02590467  0.09311432     0.16520
O1910       O  0.82725855  0.02143588  0.13226583    -0.60400
H1911       H  0.77188235  0.98904768  0.02442302     0.16530
O1912       O  0.82832229  0.99519040  0.48543990    -0.60500
H1913       H  0.82603535  0.01829760  0.47337636     0.43530
H1914       H  0.83631960  0.99976389  0.14289840     0.43480
C1915       C  0.92295168  0.21751729  0.48483781    -0.05580
C1916       C  0.92352582  0.19403885  0.45464624    -0.33010
C1917       C  0.94483811  0.16544233  0.45360372     0.36240
C1918       C  0.96512000  0.15717618  0.48394848    -0.05940
C1919       C  0.96789663  0.18131240  0.01297714    -0.32910
C1920       C  0.94741990  0.21120673  0.01375937     0.36150
H1921       H  0.90575483  0.19512368  0.43184978     0.16520
O1922       O  0.94450542  0.14456349  0.42284730    -0.60400
H1923       H  0.98410391  0.17580244  0.03626433     0.16530
O1924       O  0.95085801  0.23325092  0.04363773    -0.60500
H1925       H  0.94462615  0.21790617  0.06439892     0.43530
H1926       H  0.92083321  0.13088808  0.42171488     0.43480
C1927       C  0.92837831  0.35722229  0.01352510    -0.05580
C1928       C  0.89260140  0.34704220  0.50574389    -0.33010
C1929       C  0.88127012  0.31127269  0.49694309     0.36240
C1930       C  0.90624919  0.28470558  0.49351263    -0.05940
C1931       C  0.94240582  0.29598750  0.00013960    -0.32910
C1932       C  0.95290184  0.33095324  0.01242076     0.36150
H1933       H  0.87350880  0.36716052  0.50505881     0.16520
O1934       O  0.84544224  0.30238913  0.49250459    -0.60400
H1935       H  0.96285236  0.27780971  0.99683144     0.16530
O1936       O  0.98806656  0.34024953  0.02073829    -0.60500
H1937       H  0.99047267  0.33659472  0.04693929     0.43530
H1938       H  0.83893942  0.31193329  0.46880327     0.43480
C1939       C  0.59818239  0.14611444  0.43813604    -0.05580
C1940       C  0.63370237  0.15500987  0.44838601    -0.33010
C1941       C  0.64655885  0.19072510  0.45593400     0.36240
C1942       C  0.62374864  0.21932101  0.45372313    -0.05940
C1943       C  0.58901477  0.20997431  0.43967418    -0.32910
C1944       C  0.57589028  0.17409562  0.43349059     0.36150
H1945       H  0.65113382  0.13384190  0.45301604     0.16520
O1946       O  0.68177407  0.19725260  0.96580304    -0.60400
H1947       H  0.57120321  0.22981378  0.43278366     0.16530
O1948       O  0.54020688  0.16637814  0.42624395    -0.60500
H1949       H  0.53477148  0.17969427  0.40428987     0.43530
H1950       H  0.68383235  0.18814619  0.99053680     0.43480
C1951       C  0.57100742  0.34888817  0.46038554    -0.05580
C1952       C  0.60808162  0.35381690  0.45944698    -0.33010
C1953       C  0.62938161  0.32585041  0.46398016     0.36240
C1954       C  0.61422407  0.29003266  0.46755003    -0.05940
C1955       C  0.57687767  0.28555505  0.47186011    -0.32910
C1956       C  0.55526257  0.31420536  0.46619636     0.36150
H1957       H  0.62124276  0.38030729  0.45575316     0.16520
O1958       O  0.66550239  0.33397813  0.46352661    -0.60400
H1959       H  0.56404467  0.26022431  0.97976481     0.16530
O1960       O  0.51909679  0.30796829  0.96693001    -0.60500
H1961       H  0.51161109  0.30136580  0.94186171     0.43530
H1962       H  0.67096336  0.34231502  0.43895472     0.43480
C1963       C  0.50897559  0.10918447  0.20082132    -0.05580
C1964       C  0.49699735  0.07241453  0.19835602    -0.33010
C1965       C  0.49368747  0.05354041  0.16486712     0.36240
C1966       C  0.50531925  0.07018239  0.13305462    -0.05940
C1967       C  0.01928408  0.10615354  0.13593014    -0.32910
C1968       C  0.02098891  0.12537319  0.16852298     0.36150
H1969       H  0.49005536  0.05771816  0.22213871     0.16520
O1970       O  0.47851031  0.01907800  0.16349993    -0.60400
H1971       H  0.02866120  0.12031193  0.11240961     0.16530
O1972       O  0.03421320  0.16063978  0.16841681    -0.60500
H1973       H  0.01617727  0.17363602  0.15538913     0.43530
H1974       H  0.49168256  0.50624326  0.18170804     0.43480
C1975       C  0.47979203  0.08665933  0.34048811    -0.05580
C1976       C  0.95723494  0.07819322  0.31061296    -0.33010
C1977       C  0.96572472  0.09272043  0.27661592     0.36240
C1978       C  0.49923142  0.11244438  0.27161260    -0.05940
C1979       C  0.52003558  0.12118744  0.30314289    -0.32910
C1980       C  0.50972300  0.11047123  0.33660400     0.36150
H1981       H  0.93362560  0.06006606  0.31342877     0.16520
O1982       O  0.94073092  0.08911372  0.24915740    -0.60400
H1983       H  0.54377563  0.13929268  0.30364576     0.16530
O1984       O  0.53101799  0.12124151  0.36580935    -0.60500
H1985       H  0.55443782  0.11181245  0.36150284     0.43530
H1986       H  0.93332243  0.06314868  0.24669897     0.43480
C1987       C  0.98178770  0.16150623  0.23404507    -0.05580
C1988       C  0.95819429  0.16187807  0.20411356    -0.33010
C1989       C  0.92830528  0.18110926  0.20459965     0.36240
C1990       C  0.91968386  0.19955403  0.23594678    -0.05940
C1991       C  0.94380988  0.20255855  0.26477960    -0.32910
C1992       C  0.97497406  0.18447055  0.26397777     0.36150
H1993       H  0.96056620  0.14553397  0.18039147     0.16520
O1994       O  0.90671354  0.18062374  0.17438887    -0.60400
H1995       H  0.93761429  0.21725879  0.28885966     0.16530
O1996       O  0.99703932  0.18717148  0.29383603    -0.60500
H1997       H  0.00215084  0.21308700  0.29943992     0.43530
H1998       H  0.89422530  0.15626982  0.17295606     0.43480
C1999       C  0.54925810  0.14782554  0.24081618    -0.05580
C2000       C  0.57513629  0.12262916  0.24526521    -0.33010
C2001       C  0.61049563  0.13326440  0.25504493     0.36240
C2002       C  0.62122347  0.16964265  0.26053298    -0.05940
C2003       C  0.59618649  0.19489209  0.25530319    -0.32910
C2004       C  0.56093698  0.18459910  0.24444235     0.36150
H2005       H  0.56742982  0.09423663  0.24207099     0.16520
O2006       O  0.63494841  0.10812177  0.25657817    -0.60400
H2007       H  0.60500474  0.22318185  0.25627604     0.16530
O2008       O  0.53942958  0.21058112  0.23420490    -0.60500
H2009       H  0.54104356  0.22895081  0.25379743     0.43530
H2010       H  0.63593675  0.10116522  0.28210863     0.43480
C2011       C  0.00956475  0.13268897  0.73640677    -0.02600
O2012       O  0.95815660  0.06232555  0.89628559    -0.86600
O2013       O  0.62307024  0.47372456  0.95655720    -0.86770
O2014       O  0.57619637  0.08524615  0.92025206    -0.88440
O2015       O  0.54272433  0.47945801  0.86361224    -0.87190
O2016       O  0.50485426  0.43163468  0.87939326    -0.86780
O2017       O  0.57428541  0.10595403  0.97865857    -0.88150
O2018       O  0.60861141  0.50738674  0.90838244    -0.86630
O2019       O  0.51197046  0.04984613  0.87327514    -0.86220
Zr2020     Zr  0.54784118  0.02205284  0.91588143     2.84310
O2021       O  0.54626765  0.46400823  0.93819478    -1.08190
O2022       O  0.51556549  0.05767294  0.95331982    -1.08920
C2023       C  0.48202010  0.06379769  0.87169609     1.06510
C2024       C  0.63043603  0.48938211  0.92629775     1.06450
C2025       C  0.58222486  0.10968053  0.94559951     1.09430
C2026       C  0.52544692  0.44846086  0.85697403     1.07210
H2027       H  0.59699998  0.03632998  0.97238454     0.32770
O2028       O  0.57274995  0.02607426  0.97369465    -1.29150
H2029       H  0.97763658  0.49570766  0.89460082     0.32440
O2030       O  0.48855532  0.49771515  0.91828303    -1.30830
O2031       O  0.56793129  0.44564905  0.55851881    -0.86600
O2032       O  0.90306522  0.02803033  0.99429593    -0.88090
O2033       O  0.60074658  0.05753596  0.53935541    -0.86670
O2034       O  0.52283644  0.38686922  0.94622347    -0.86720
O2035       O  0.92708983  0.44318753  0.91238081    -0.86440
O2036       O  0.50684576  0.11529749  0.50372992    -0.86240
O2037       O  0.98699044  0.02116869  0.58988424    -0.86610
O2038       O  0.94826659  0.41815403  0.53191377    -0.86070
O2039       O  0.52490452  0.06866449  0.57347511    -0.87140
O2040       O  0.95111150  0.39760087  0.97350270    -0.86300
O2041       O  0.61611791  0.50019878  0.52846631    -0.86690
O2042       O  0.95681207  0.09635116  0.97066705    -0.86420
O2043       O  0.91099040  0.49996327  0.92444157    -0.86070
O2044       O  0.57080304  0.40656458  0.98201130    -0.86470
O2045       O  0.51080169  0.44970181  0.57721912    -0.86770
O2046       O  0.91763223  0.49471524  0.54258716    -0.88110
Zr2047     Zr  0.57002125  0.46837068  0.99635786     2.83100
Zr2048     Zr  0.95654326  0.03406911  0.95578390     2.83500
Zr2049     Zr  0.54041908  0.06163519  0.51140595     2.84090
Zr2050     Zr  0.48703870  0.43995988  0.94079958     2.83360
Zr2051     Zr  0.97815061  0.48034404  0.53557748     2.84220
O2052       O  0.95412411  0.47613233  0.97756002    -1.08680
O2053       O  0.53759239  0.50391532  0.53366151    -1.08180
C2054       C  0.54297994  0.44235857  0.58203831     1.06480
C2055       C  0.89560643  0.01205453  0.52427931     1.09100
C2056       C  0.62205630  0.03194055  0.54124909     1.06650
C2057       C  0.55267912  0.38240590  0.96304958     1.07010
C2058       C  0.90542458  0.46844164  0.91099911     1.06590
C2059       C  0.97757746  0.12076233  0.98659655     1.06150
C2060       C  0.50543924  0.05164789  0.59665920     1.06570
C2061       C  0.94244947  0.39403100  0.50636414     1.06080
H2062       H  0.96696769  0.05378737  0.52877296     0.32760
O2063       O  0.98051199  0.03867709  0.51395528    -1.29780
H2064       H  0.51145643  0.42060990  0.50948288     0.32790
O2065       O  0.51130878  0.44406361  0.99920162    -1.31160
C2066       C  0.75824296  0.00516313  0.59856467    -0.02600
O2067       O  0.68121854  0.18917690  0.78073186    -0.86600
O2068       O  0.74747505  0.27577228  0.61051160    -0.86770
O2069       O  0.65327112  0.25853865  0.69413903    -0.88440
O2070       O  0.70915828  0.16341252  0.66056685    -0.87190
O2071       O  0.76462418  0.14553940  0.67437739    -0.86780
O2072       O  0.67354103  0.30532590  0.73091844    -0.88150
O2073       O  0.69937119  0.23873218  0.62662933    -0.86630
O2074       O  0.66322938  0.18893031  0.72126677    -0.86220
Zr2075     Zr  0.70640765  0.22335584  0.68888264     2.84310
O2076       O  0.76422494  0.22328221  0.66832666    -1.08190
O2077       O  0.71005017  0.24854417  0.74676844    -1.08920
C2078       C  0.65818229  0.18257445  0.75443629     1.06510
C2079       C  0.71672415  0.25822019  0.60367768     1.06450
C2080       C  0.64905595  0.28783764  0.71215476     1.09430
C2081       C  0.73362693  0.14100098  0.65996993     1.07210
H2082       H  0.71631475  0.29656675  0.67029196     0.32770
O2083       O  0.73095767  0.28268949  0.68532338    -1.29150
H2084       H  0.72914129  0.16592903  0.72958125     0.32440
O2085       O  0.74001814  0.19008145  0.72816948    -1.30830
O2086       O  0.85175157  0.31179370  0.66775347    -0.86600
O2087       O  0.78475616  0.22402255  0.83991676    -0.88090
O2088       O  0.74112113  0.35969450  0.70333890    -0.86670
O2089       O  0.82602352  0.18947239  0.64844109    -0.86720
O2090       O  0.78992111  0.13769774  0.74786891    -0.86440
O2091       O  0.70981038  0.30767160  0.80370221    -0.86240
O2092       O  0.82300456  0.33617193  0.78882960    -0.86610
O2093       O  0.87869095  0.24125330  0.75499582    -0.86070
O2094       O  0.76783114  0.35391575  0.77390156    -0.87140
O2095       O  0.85926698  0.18949529  0.72431336    -0.86300
O2096       O  0.77468954  0.34399444  0.65577774    -0.86690
O2097       O  0.71381529  0.25112733  0.82573828    -0.86420
O2098       O  0.75636527  0.15433796  0.79498533    -0.86070
O2099       O  0.81292412  0.24220930  0.62250019    -0.86470
O2100       O  0.86981554  0.30926560  0.72692398    -0.86770
O2101       O  0.83297987  0.26039334  0.82292228    -0.88110
Zr2102     Zr  0.78889788  0.28250432  0.66389430     2.83100
Zr2103     Zr  0.74413017  0.21575088  0.78566403     2.83500
Zr2104     Zr  0.73524113  0.30701939  0.74325864     2.84090
Zr2105     Zr  0.79788000  0.19039876  0.70763703     2.83360
Zr2106     Zr  0.82629762  0.27565851  0.76048258     2.84220
O2107       O  0.80232760  0.21599931  0.76510235    -1.08680
O2108       O  0.79255075  0.30839075  0.72150500    -1.08180
C2109       C  0.87478784  0.31834948  0.69427845     1.06480
C2110       C  0.81559263  0.24161411  0.84641161     1.09100
C2111       C  0.75716407  0.36653294  0.67335704     1.06650
C2112       C  0.82680926  0.21201512  0.62245992     1.07010
C2113       C  0.77354741  0.13136205  0.77782411     1.06590
C2114       C  0.70590762  0.28362007  0.82818496     1.06150
C2115       C  0.79838860  0.35858522  0.78915520     1.06570
C2116       C  0.88362762  0.21106474  0.73921417     1.06080
H2117       H  0.77135230  0.28624218  0.80576370     0.32760
O2118       O  0.76934151  0.27488829  0.78228713    -1.29780
H2119       H  0.84598258  0.24858972  0.69294213     0.32790
O2120       O  0.82260915  0.24933437  0.70284751    -1.31160
C2121       C  0.63924669  0.25900719  0.96218464    -0.02600
C2122       C  0.52434471  0.37051377  0.71646306    -0.02600
C2123       C  0.89263999  0.24418404  0.98840120    -0.02600
C2124       C  0.76872214  0.49257323  0.85224434    -0.02600
C2125       C  0.65854396  0.26849958  0.92673594    -0.05580
C2126       C  0.69551031  0.26817261  0.92321906    -0.33010
C2127       C  0.71233532  0.28187426  0.89293848     0.36240
C2128       C  0.69206448  0.29162664  0.86306100    -0.05940
C2129       C  0.65540843  0.29106232  0.86526367    -0.32910
C2130       C  0.63845537  0.27868447  0.89600415     0.36150
H2131       H  0.71174707  0.25602787  0.94295976     0.16520
O2132       O  0.74847311  0.28065795  0.89053052    -0.60400
H2133       H  0.63948958  0.29647907  0.84170570     0.16530
O2134       O  0.60196834  0.27667024  0.89560109    -0.60500
H2135       H  0.59416450  0.25703192  0.87827981     0.43530
H2136       H  0.75862943  0.30531376  0.89661155     0.43480
C2137       C  0.66138684  0.25987076  0.49873550    -0.05580
C2138       C  0.69537331  0.27874952  0.50492450    -0.33010
C2139       C  0.71400746  0.27817893  0.53811060     0.36240
C2140       C  0.69861482  0.25994369  0.56736235    -0.05940
C2141       C  0.66401966  0.24311175  0.56217303    -0.32910
C2142       C  0.64549169  0.24357625  0.52919034     0.36150
H2143       H  0.70812375  0.29525194  0.98486715     0.16520
O2144       O  0.74697157  0.29638480  0.54162940    -0.60400
H2145       H  0.65053155  0.22953863  0.58407033     0.16530
O2146       O  0.61148888  0.22749431  0.52707290    -0.60500
H2147       H  0.59637247  0.24497488  0.53811845     0.43530
H2148       H  0.76388406  0.27935358  0.53300195     0.43480
C2149       C  0.86891607  0.24345665  0.95280985    -0.05580
C2150       C  0.88656116  0.25485685  0.92143036    -0.33010
C2151       C  0.87013378  0.25250060  0.88745318     0.36240
C2152       C  0.83349259  0.24127302  0.88311204    -0.05940
C2153       C  0.81455138  0.23260045  0.91441019    -0.32910
C2154       C  0.83151428  0.23414997  0.94900148     0.36150
H2155       H  0.91464715  0.26372239  0.92306424     0.16520
O2156       O  0.89086509  0.26105374  0.85850447    -0.60400
H2157       H  0.78613690  0.22566913  0.91230438     0.16530
O2158       O  0.81063701  0.23065032  0.97870244    -0.60500
H2159       H  0.79397277  0.20905176  0.97442322     0.43510
H2160       H  0.89989196  0.23814796  0.85046400     0.43480
C2161       C  0.85016476  0.20886083  0.59192513    -0.05580
C2162       C  0.84091871  0.18768354  0.56119075    -0.33010
C2163       C  0.85511039  0.19766760  0.52743982     0.36240
C2164       C  0.87373481  0.23203918  0.52354569    -0.05940
C2165       C  0.88281423  0.25173709  0.55575066    -0.32910
C2166       C  0.87463609  0.23851396  0.58898751     0.36150
H2167       H  0.82257688  0.16405361  0.56322194     0.16520
O2168       O  0.85161874  0.17385260  0.49881039    -0.60400
H2169       H  0.89945999  0.27654577  0.55663021     0.16530
O2170       O  0.88640574  0.25823954  0.61890548    -0.60500
H2171       H  0.90437508  0.24404519  0.63051536     0.43530
H2172       H  0.82672973  0.16301952  0.49844202     0.43480
C2173       C  0.80127960  0.39196368  0.80995640    -0.05580
C2174       C  0.77714744  0.39254635  0.83787374    -0.33010
C2175       C  0.76071680  0.42341159  0.84689177     0.36240
C2176       C  0.77084226  0.45679675  0.83043202    -0.05940
C2177       C  0.79626195  0.45567297  0.80280194    -0.32910
C2178       C  0.81086222  0.42392968  0.79246152     0.36150
H2179       H  0.76793483  0.36763887  0.85039641     0.16520
O2180       O  0.73662899  0.42064986  0.87397670    -0.60400
H2181       H  0.80676285  0.47994043  0.79028567     0.16530
O2182       O  0.83319604  0.42404770  0.76388976    -0.60500
H2183       H  0.85710816  0.43182138  0.77414076     0.43530
H2184       H  0.71438845  0.40922298  0.86270894     0.43480
C2185       C  0.77377470  0.09552944  0.79491701    -0.05580
C2186       C  0.76475558  0.06353666  0.77535518    -0.33010
C2187       C  0.76040167  0.03015820  0.79270138     0.36240
C2188       C  0.76770620  0.02783117  0.83025388    -0.05940
C2189       C  0.77465130  0.06052021  0.84955874    -0.32910
C2190       C  0.77808422  0.09356479  0.83248658     0.36150
H2191       H  0.75927451  0.06457040  0.74675395     0.16520
O2192       O  0.74768193  0.00060412  0.77275189    -0.60400
H2193       H  0.77911263  0.06033023  0.87832254     0.16530
O2194       O  0.78585688  0.12404724  0.85306241    -0.60500
H2195       H  0.81217806  0.12809067  0.85328953     0.43530
H2196       H  0.72190337  0.00314658  0.76905383     0.43480
C2197       C  0.98454702  0.35627485  0.70777290    -0.05580
C2198       C  0.95669915  0.37253435  0.72522932    -0.33010
C2199       C  0.92091122  0.36423087  0.71627056     0.36240
C2200       C  0.91048623  0.33779752  0.69013594    -0.05940
C2201       C  0.93730245  0.32350407  0.67006212    -0.32910
C2202       C  0.97394057  0.33340621  0.67772553     0.36150
H2203       H  0.96201235  0.39313545  0.74569339     0.16520
O2204       O  0.89577778  0.38044466  0.73545680    -0.60400
H2205       H  0.93010558  0.30376899  0.64920413     0.16530
O2206       O  0.99909240  0.32183787  0.65499950    -0.60500
H2207       H  0.99246387  0.29613300  0.64949519     0.43530
H2208       H  0.88908128  0.40048569  0.72037014     0.43480
C2209       C  0.61517959  0.30564425  0.71225161    -0.05580
C2210       C  0.58112908  0.28717899  0.71152142    -0.33010
C2211       C  0.54999245  0.30583576  0.71637916     0.36240
C2212       C  0.55338034  0.34363346  0.72120168    -0.05940
C2213       C  0.58802705  0.36049671  0.72553425    -0.32910
C2214       C  0.61783741  0.34296614  0.71876444     0.36150
H2215       H  0.57889648  0.25851273  0.70739230     0.16520
O2216       O  0.51730441  0.28710204  0.71877260    -0.60400
H2217       H  0.59222345  0.38924633  0.72927902     0.16530
O2218       O  0.64963094  0.36345778  0.71620999    -0.60500
H2219       H  0.65633106  0.37166142  0.74108824     0.43530
H2220       H  0.51592892  0.26832283  0.69958814     0.43480
C2221       C  0.75884376  0.46956903  0.62014046    -0.05580
C2222       C  0.76567318  0.46791670  0.65763627    -0.33010
C2223       C  0.76280299  0.43500303  0.67585680     0.36240
C2224       C  0.75560116  0.40240239  0.65658825    -0.05940
C2225       C  0.75077561  0.40372963  0.61926340    -0.32910
C2226       C  0.75237295  0.43632056  0.60121667     0.36150
H2227       H  0.77390628  0.49189357  0.67314754     0.16520
O2228       O  0.76909320  0.43494372  0.71221399    -0.60400
H2229       H  0.74571000  0.37905917  0.60368890     0.16530
O2230       O  0.74642888  0.43536690  0.56475671    -0.60500
H2231       H  0.76803362  0.42619092  0.55440191     0.43530
H2232       H  0.74559826  0.43743630  0.72305809     0.43480
C2233       C  0.75697372  0.04155173  0.61939753    -0.05580
C2234       C  0.73508670  0.04381233  0.64978878    -0.33010
C2235       C  0.72206759  0.07605369  0.66078593     0.36240
C2236       C  0.72909382  0.10704472  0.64082834    -0.05940
C2237       C  0.74978849  0.10547526  0.61047757    -0.32910
C2238       C  0.76490908  0.07417572  0.60048707     0.36150
H2239       H  0.72591776  0.02040931  0.66436736     0.16520
O2240       O  0.70459382  0.07764176  0.69264519    -0.60400
H2241       H  0.75764097  0.12994377  0.59648525     0.16530
O2242       O  0.78757833  0.07598772  0.57197644    -0.60500
H2243       H  0.77501264  0.08705121  0.55188248     0.43530
H2244       H  0.67899638  0.07306753  0.68610580     0.43480
C2245       C  0.54918346  0.42982721  0.61841097    -0.05580
C2246       C  0.52882583  0.44433774  0.64548318    -0.33010
C2247       C  0.51983750  0.42539218  0.67615787     0.36240
C2248       C  0.53515150  0.39313122  0.68310200    -0.05940
C2249       C  0.55737703  0.37978065  0.65602924    -0.32910
C2250       C  0.56459422  0.39795929  0.62438239     0.36150
H2251       H  0.51597258  0.46858118  0.64050739     0.16520
O2252       O  0.49319478  0.43665459  0.69705888    -0.60400
H2253       H  0.56751489  0.35368668  0.65761042     0.16530
O2254       O  0.58297896  0.38212954  0.59787583    -0.60500
H2255       H  0.60821580  0.39101303  0.60222715     0.43530
H2256       H  0.50355105  0.45817911  0.71042732     0.43480
C2257       C  0.52717435  0.39199548  0.75337062    -0.05580
C2258       C  0.54288929  0.42759501  0.75763928    -0.33010
C2259       C  0.54275787  0.44653652  0.79069985     0.36240
C2260       C  0.52867206  0.42959599  0.82137820    -0.05940
C2261       C  0.51657004  0.39306931  0.81806295    -0.32910
C2262       C  0.51598675  0.37445682  0.78507253     0.36150
H2263       H  0.55575066  0.44114648  0.73548213     0.16520
O2264       O  0.55653242  0.48155125  0.79249896    -0.60400
H2265       H  0.50705102  0.37847195  0.84127118     0.16530
O2266       O  0.50442627  0.33872209  0.78399488    -0.60500
H2267       H  0.97852692  0.33763591  0.78846994     0.43530
H2268       H  0.53652180  0.49577575  0.78546644     0.43480
C2269       C  0.73372890  0.49173272  0.87454506    -0.05580
C2270       C  0.70126100  0.48362546  0.85542633    -0.33010
C2271       C  0.66827880  0.48138206  0.87232242     0.36240
C2272       C  0.66616861  0.48726968  0.90967429    -0.05940
C2273       C  0.69805630  0.49632345  0.92917791    -0.32910
C2274       C  0.73135293  0.49982267  0.91194629     0.36150
H2275       H  0.70148870  0.97822104  0.82681084     0.16520
O2276       O  0.63799955  0.47258088  0.85193684    -0.60400
H2277       H  0.69702609  0.50271929  0.95758420     0.16530
O2278       O  0.76077275  0.51270812  0.93180754    -0.60500
H2279       H  0.75782257  0.53847039  0.93622439     0.43530
H2280       H  0.63296426  0.99486448  0.83946053     0.43480
C2281       C  0.87140923  0.46468433  0.89164276    -0.05580
C2282       C  0.86881281  0.48918041  0.86414931    -0.33010
C2283       C  0.83719509  0.00450816  0.85653031     0.36240
C2284       C  0.80484760  0.49228315  0.87352937    -0.05940
C2285       C  0.80797593  0.46651347  0.90078799    -0.32910
C2286       C  0.84064593  0.45329410  0.91002636     0.36150
H2287       H  0.89274414  0.99968877  0.85095769     0.16520
O2288       O  0.83827678  0.02948607  0.83003284    -0.60400
H2289       H  0.78463244  0.45475206  0.91379494     0.16530
O2290       O  0.84256425  0.43056810  0.93832784    -0.60500
H2291       H  0.83958123  0.40613344  0.92744055     0.43530
H2292       H  0.84917509  0.05192880  0.84156256     0.43480
C2293       C  0.65670243  0.03578267  0.55926917    -0.05580
C2294       C  0.65917647  0.01433257  0.58927401    -0.33010
C2295       C  0.68994380  0.99752896  0.59715769     0.36240
C2296       C  0.72190174  0.00559208  0.57776651    -0.05940
C2297       C  0.71885371  0.02778998  0.54753520    -0.32910
C2298       C  0.68680074  0.04206590  0.53806983     0.36150
H2299       H  0.63552073  0.00708437  0.60449845     0.16520
O2300       O  0.68886965  0.97538576  0.62609630    -0.60400
H2301       H  0.74156637  0.03623824  0.53190053     0.16530
O2302       O  0.68454024  0.06014670  0.00652191    -0.60500
H2303       H  0.69044906  0.08570478  0.01318969     0.43530
H2304       H  0.67802682  0.95196834  0.61675090     0.43480
C2305       C  0.85986651  0.01324784  0.54047075    -0.05580
C2306       C  0.85847289  0.01886635  0.57767106    -0.33010
C2307       C  0.82634787  0.01500175  0.59585849     0.36240
C2308       C  0.79355105  0.00617687  0.57704821    -0.05940
C2309       C  0.79533090  0.99888659  0.53968816    -0.32910
C2310       C  0.82786421  0.00317762  0.52143532     0.36150
H2311       H  0.88282089  0.02578736  0.59310319     0.16520
O2312       O  0.82720017  0.02121400  0.63228174    -0.60400
H2313       H  0.77179405  0.98905106  0.52440368     0.16530
O2314       O  0.82841099  0.99521393  0.98545984    -0.60500
H2315       H  0.82609583  0.01831475  0.97339273     0.43530
H2316       H  0.83688871  0.99980685  0.64282957     0.43480
C2317       C  0.92296382  0.21750580  0.98484823    -0.05580
C2318       C  0.92353625  0.19402054  0.95466270    -0.33010
C2319       C  0.94485873  0.16543089  0.95361952     0.36240
C2320       C  0.96515694  0.15717652  0.98395941    -0.05940
C2321       C  0.96786665  0.18130882  0.51296828    -0.32910
C2322       C  0.94740230  0.21121042  0.51375046     0.36150
H2323       H  0.90575757  0.19509705  0.93187089     0.16520
O2324       O  0.94452028  0.14454686  0.92286619    -0.60400
H2325       H  0.98406790  0.17579026  0.53625714     0.16530
O2326       O  0.95084383  0.23325212  0.54363073    -0.60500
H2327       H  0.94460989  0.21790687  0.56439103     0.43530
H2328       H  0.92085031  0.13086656  0.92174349     0.43480
C2329       C  0.92837437  0.35722784  0.51352618    -0.05580
C2330       C  0.89260555  0.34703359  0.00574500    -0.33010
C2331       C  0.88127615  0.31126292  0.99694598     0.36240
C2332       C  0.90625682  0.28469695  0.99351470    -0.05940
C2333       C  0.94239861  0.29599306  0.50013960    -0.32910
C2334       C  0.95289626  0.33095732  0.51242273     0.36150
H2335       H  0.87351125  0.36715031  0.00506090     0.16520
O2336       O  0.84544835  0.30237726  0.99251104    -0.60400
H2337       H  0.96284422  0.27781425  0.49683121     0.16530
O2338       O  0.98806121  0.34025111  0.52074155    -0.60500
H2339       H  0.99046583  0.33659720  0.54694283     0.43530
H2340       H  0.83894206  0.31192286  0.96881139     0.43480
C2341       C  0.59820268  0.14611834  0.93812782    -0.05580
C2342       C  0.63372188  0.15502040  0.94837464    -0.33010
C2343       C  0.64657075  0.19073598  0.95592807     0.36240
C2344       C  0.62375467  0.21932712  0.95372110    -0.05940
C2345       C  0.58902112  0.20997530  0.93967355    -0.32910
C2346       C  0.57590301  0.17409464  0.93348835     0.36150
H2347       H  0.65115859  0.13385612  0.95300097     0.16520
O2348       O  0.68176337  0.19723703  0.46580648    -0.60400
H2349       H  0.57120549  0.22981187  0.93278547     0.16530
O2350       O  0.54021939  0.16637001  0.92624772    -0.60500
H2351       H  0.53477502  0.17969212  0.90430001     0.43530
H2352       H  0.68382180  0.18813225  0.49054085     0.43480
C2353       C  0.57100656  0.34889173  0.96038638    -0.05580
C2354       C  0.60808075  0.35382168  0.95945065    -0.33010
C2355       C  0.62938095  0.32585572  0.96398366     0.36240
C2356       C  0.61422381  0.29003750  0.96755056    -0.05940
C2357       C  0.57687717  0.28555831  0.97185783    -0.32910
C2358       C  0.55526183  0.31420826  0.96619374     0.36150
H2359       H  0.62124172  0.38031246  0.95575869     0.16520
O2360       O  0.66550168  0.33398434  0.96353202    -0.60400
H2361       H  0.56404511  0.26022164  0.47976890     0.16530
O2362       O  0.51909761  0.30796658  0.46693729    -0.60500
H2363       H  0.51160879  0.30136227  0.44187021     0.43530
H2364       H  0.67096367  0.34232184  0.93896056     0.43480
C2365       C  0.50897499  0.10918359  0.70082148    -0.05580
C2366       C  0.49699906  0.07241308  0.69836036    -0.33010
C2367       C  0.49367731  0.05353858  0.66487246     0.36240
C2368       C  0.50529207  0.07018158  0.63305497    -0.05940
C2369       C  0.01926199  0.10615178  0.63592704    -0.32910
C2370       C  0.02098156  0.12537082  0.66852034     0.36150
H2371       H  0.49006840  0.05771620  0.72214574     0.16520
O2372       O  0.47850796  0.01907352  0.66351238    -0.60400
H2373       H  0.02863163  0.12031025  0.61240378     0.16530
O2374       O  0.03421047  0.16063600  0.66841148    -0.60500
H2375       H  0.01617336  0.17363519  0.65538897     0.43530
H2376       H  0.49171453  0.50624222  0.68170549     0.43480
C2377       C  0.47981850  0.08665364  0.84048838    -0.05580
C2378       C  0.95725771  0.07818360  0.81061668    -0.33010
C2379       C  0.96573789  0.09271572  0.77661962     0.36240
C2380       C  0.49923984  0.11244698  0.77161286    -0.05940
C2381       C  0.52004562  0.12119587  0.80314102    -0.32910
C2382       C  0.50974157  0.11047429  0.83660236     0.36150
H2383       H  0.93365308  0.06005054  0.81343528     0.16520
O2384       O  0.94074015  0.08910570  0.74916473    -0.60400
H2385       H  0.54378054  0.13930833  0.80364181     0.16530
O2386       O  0.53103684  0.12125008  0.86580570    -0.60500
H2387       H  0.55445853  0.11182564  0.86149797     0.43530
H2388       H  0.93333481  0.06313995  0.74670677     0.43480
C2389       C  0.98178787  0.16150581  0.73404465    -0.05580
C2390       C  0.95819281  0.16187588  0.70411406    -0.33010
C2391       C  0.92830293  0.18110576  0.70460039     0.36240
C2392       C  0.91968048  0.19954925  0.73594763    -0.05940
C2393       C  0.94380757  0.20255571  0.76477977    -0.32910
C2394       C  0.97497372  0.18447048  0.76397700     0.36150
H2395       H  0.96056403  0.14553177  0.68039202     0.16520
O2396       O  0.90671186  0.18062097  0.67438921    -0.60400
H2397       H  0.93761192  0.21725609  0.78885972     0.16530
O2398       O  0.99704041  0.18717467  0.79383412    -0.60500
H2399       H  0.00214976  0.21309067  0.79943683     0.43530
H2400       H  0.89422385  0.15626700  0.67295547     0.43480
C2401       C  0.54926068  0.14782651  0.74081054    -0.05580
C2402       C  0.57513883  0.12263009  0.74526036    -0.33010
C2403       C  0.61049682  0.13326512  0.75504534     0.36240
C2404       C  0.62122345  0.16964319  0.76053699    -0.05940
C2405       C  0.59618666  0.19489262  0.75530498    -0.32910
C2406       C  0.56093852  0.18459971  0.74443937     0.36150
H2407       H  0.56743285  0.09423758  0.74206479     0.16520
O2408       O  0.63494973  0.10812267  0.75658052    -0.60400
H2409       H  0.60500447  0.22318248  0.75627996     0.16530
O2410       O  0.53943077  0.21058146  0.73420218    -0.60500
H2411       H  0.54104386  0.22895057  0.75379523     0.43530
H2412       H  0.63593492  0.10116474  0.78211071     0.43480
C2413       C  0.00956667  0.63269086  0.23640394    -0.02600
O2414       O  0.95816981  0.56232856  0.39628330    -0.86600
O2415       O  0.62303946  0.97374739  0.45656701    -0.86770
O2416       O  0.57620630  0.58524860  0.42025368    -0.88440
O2417       O  0.54269283  0.97945977  0.36361533    -0.87190
O2418       O  0.50483280  0.93162935  0.37939665    -0.86780
O2419       O  0.57430277  0.60595283  0.47866221    -0.88150
O2420       O  0.60857207  0.00739300  0.40838366    -0.86630
O2421       O  0.51198360  0.54984829  0.37327485    -0.86220
Zr2422     Zr  0.54785437  0.52205329  0.41588128     2.84310
O2423       O  0.54623399  0.96401304  0.43819730    -1.08190
O2424       O  0.51558459  0.55767547  0.45332149    -1.08920
C2425       C  0.48203308  0.56379971  0.37169458     1.06510
C2426       C  0.63040284  0.98939746  0.42630252     1.06450
C2427       C  0.58223707  0.60968192  0.44560210     1.09430
C2428       C  0.52542392  0.94845826  0.35697742     1.07210
H2429       H  0.59701455  0.53632410  0.47238652     0.32770
O2430       O  0.57276379  0.52607018  0.47369525    -1.29150
H2431       H  0.97759420  0.99570397  0.39460732     0.32440
O2432       O  0.48850975  0.99771427  0.41829087    -1.30830
O2433       O  0.56792619  0.94565395  0.05852015    -0.86600
O2434       O  0.90308416  0.52804736  0.49427627    -0.88090
O2435       O  0.60083821  0.55748603  0.03933926    -0.86670
O2436       O  0.52282177  0.88687554  0.44623426    -0.86720
O2437       O  0.92706280  0.94317186  0.41236928    -0.86440
O2438       O  0.50691102  0.61529949  0.00374077    -0.86240
O2439       O  0.98703445  0.52117133  0.08987734    -0.86610
O2440       O  0.94826310  0.91814790  0.03191551    -0.86070
O2441       O  0.52496748  0.56865888  0.07348203    -0.87140
O2442       O  0.95109307  0.89759166  0.47350850    -0.86300
O2443       O  0.61610275  0.00021415  0.02846344    -0.86690
O2444       O  0.95683214  0.59635292  0.47066734    -0.86420
O2445       O  0.91094474  0.99994201  0.42442713    -0.86070
O2446       O  0.57078909  0.90658201  0.48201612    -0.86470
O2447       O  0.51079927  0.94971188  0.07722667    -0.86770
O2448       O  0.91761706  0.99470844  0.04261315    -0.88110
Zr2449     Zr  0.56998219  0.96838701  0.49636153     2.83100
Zr2450     Zr  0.95656263  0.53407285  0.45577849     2.83500
Zr2451     Zr  0.54049393  0.56163028  0.01141302     2.84090
Zr2452     Zr  0.48700789  0.93995748  0.44080200     2.83360
Zr2453     Zr  0.97813883  0.98034277  0.03558210     2.84220
O2454       O  0.95407863  0.97612198  0.47756020    -1.08680
O2455       O  0.53757982  0.00391872  0.03366118    -1.08180
C2456       C  0.54297734  0.94236640  0.08204272     1.06480
C2457       C  0.89569057  0.51209856  0.02427191     1.09100
C2458       C  0.62214412  0.53188352  0.04122583     1.06650
C2459       C  0.55266797  0.88241830  0.46305789     1.07010
C2460       C  0.90539119  0.96842031  0.41098258     1.06590
C2461       C  0.97759699  0.62076257  0.48659951     1.06150
C2462       C  0.50548629  0.55164742  0.09665802     1.06570
C2463       C  0.94244738  0.89402428  0.00636579     1.06080
H2464       H  0.96704326  0.55379052  0.02876933     0.32760
O2465       O  0.98058509  0.53867811  0.01395151    -1.29780
H2466       H  0.51145046  0.92061199  0.00948549     0.32790
O2467       O  0.51127039  0.94407329  0.49920682    -1.31160
C2468       C  0.75836841  0.50518524  0.09857182    -0.02600
O2469       O  0.68121837  0.68917655  0.28073238    -0.86600
O2470       O  0.74747540  0.77576089  0.11051229    -0.86770
O2471       O  0.65327210  0.75852551  0.19413347    -0.88440
O2472       O  0.70918033  0.66339664  0.16055958    -0.87190
O2473       O  0.76464188  0.64552703  0.17439547    -0.86780
O2474       O  0.67353725  0.80531068  0.23091803    -0.88150
O2475       O  0.69937246  0.73871779  0.12662722    -0.86630
O2476       O  0.66323401  0.68891218  0.22126486    -0.86220
Zr2477     Zr  0.70641013  0.72333892  0.18887985     2.84310
O2478       O  0.76422975  0.72327047  0.16832790    -1.08190
O2479       O  0.71004835  0.74852944  0.24676554    -1.08920
C2480       C  0.65818435  0.68256680  0.25443607     1.06510
C2481       C  0.71672470  0.75820890  0.10367745     1.06450
C2482       C  0.64905439  0.78782410  0.21215018     1.09430
C2483       C  0.73365172  0.64098690  0.15997358     1.07210
H2484       H  0.71631380  0.79654746  0.17029077     0.32770
O2485       O  0.73095832  0.78267236  0.18532266    -1.29150
H2486       H  0.72914786  0.66591990  0.22958521     0.32440
O2487       O  0.74002260  0.69007308  0.22817282    -1.30830
O2488       O  0.85175160  0.81178892  0.16775281    -0.86600
O2489       O  0.78475968  0.72401829  0.33991654    -0.88090
O2490       O  0.74109829  0.85965993  0.20332174    -0.86670
O2491       O  0.82602670  0.68946646  0.14844738    -0.86720
O2492       O  0.78992824  0.63769669  0.24787702    -0.86440
O2493       O  0.70980690  0.80766398  0.30369981    -0.86240
O2494       O  0.82299513  0.83617467  0.28882817    -0.86610
O2495       O  0.87869398  0.74125793  0.25499736    -0.86070
O2496       O  0.76782107  0.85391154  0.27389172    -0.87140
O2497       O  0.85927195  0.68949536  0.22432176    -0.86300
O2498       O  0.77467421  0.84397507  0.15576087    -0.86690
O2499       O  0.71381734  0.75112311  0.32574132    -0.86420
O2500       O  0.75636554  0.65433411  0.29498907    -0.86070
O2501       O  0.81292554  0.74219946  0.12249987    -0.86470
O2502       O  0.86981481  0.80926721  0.22692410    -0.86770
O2503       O  0.83298133  0.76039335  0.32292340    -0.88110
Zr2504     Zr  0.78889922  0.78249376  0.16389379     2.83100
Zr2505     Zr  0.74413130  0.71574589  0.28566619     2.83500
Zr2506     Zr  0.73523725  0.80700374  0.24325708     2.84090
Zr2507     Zr  0.79788628  0.69039642  0.20764505     2.83360
Zr2508     Zr  0.82629780  0.77566012  0.26048422     2.84220
O2509       O  0.80233037  0.71600030  0.26510785    -1.08680
O2510       O  0.79254757  0.80838541  0.22150314    -1.08180
C2511       C  0.87478749  0.81834832  0.19427780     1.06480
C2512       C  0.81559553  0.74161100  0.34641155     1.09100
C2513       C  0.75713325  0.86650259  0.17333757     1.06650
C2514       C  0.82681130  0.71200582  0.12246325     1.07010
C2515       C  0.77355097  0.63135979  0.27782974     1.06590
C2516       C  0.70590714  0.78361521  0.32818532     1.06150
C2517       C  0.79837662  0.85858559  0.28914912     1.06570
C2518       C  0.88363181  0.71106801  0.23921872     1.06080
H2519       H  0.77135042  0.78623877  0.30576458     0.32760
O2520       O  0.76934115  0.77488310  0.28228880    -1.29780
H2521       H  0.84598682  0.74858726  0.19294575     0.32790
O2522       O  0.82261328  0.74933147  0.20285097    -1.31160
C2523       C  0.63924398  0.75901600  0.46218680    -0.02600
C2524       C  0.52434644  0.87051150  0.21646335    -0.02600
C2525       C  0.89264429  0.74417137  0.48840049    -0.02600
C2526       C  0.76869836  0.99257341  0.35224234    -0.02600
C2527       C  0.65854317  0.76850835  0.42673916    -0.05580
C2528       C  0.69550995  0.76818162  0.42322324    -0.33010
C2529       C  0.71233502  0.78187664  0.39293981     0.36240
C2530       C  0.69206407  0.79162475  0.36306071    -0.05940
C2531       C  0.65540809  0.79106176  0.36526330    -0.32910
C2532       C  0.63845493  0.77868858  0.39600549     0.36150
H2533       H  0.71174704  0.75604030  0.44296596     0.16520
O2534       O  0.74847266  0.78065803  0.39053189    -0.60400
H2535       H  0.63948924  0.79647497  0.34170425     0.16530
O2536       O  0.60196783  0.77667199  0.39560144    -0.60500
H2537       H  0.59416564  0.75703067  0.37828291     0.43530
H2538       H  0.75863020  0.80531450  0.39660821     0.43480
C2539       C  0.66138483  0.75987751  0.99873928    -0.05580
C2540       C  0.69537181  0.77875424  0.00492944    -0.33010
C2541       C  0.71400714  0.77817691  0.03811397     0.36240
C2542       C  0.69861450  0.75993782  0.06736346    -0.05940
C2543       C  0.66401814  0.74310892  0.06217363    -0.32910
C2544       C  0.64548937  0.74357936  0.02919199     0.36150
H2545       H  0.70811836  0.79526375  0.48487330     0.16520
O2546       O  0.74697283  0.79637940  0.04163338    -0.60400
H2547       H  0.65053006  0.72953339  0.08406954     0.16530
O2548       O  0.61148598  0.72749892  0.02707297    -0.60500
H2549       H  0.59637017  0.74497962  0.03811924     0.43530
H2550       H  0.76388313  0.77934761  0.03300233     0.43480
C2551       C  0.86892146  0.74344062  0.45280796    -0.05580
C2552       C  0.88656575  0.75484508  0.42142919    -0.33010
C2553       C  0.87013765  0.75249367  0.38745227     0.36240
C2554       C  0.83349659  0.74126613  0.38311095    -0.05940
C2555       C  0.81455638  0.73258791  0.41440822    -0.32910
C2556       C  0.83152000  0.73413220  0.44899898     0.36150
H2557       H  0.91465132  0.76371237  0.42306350     0.16520
O2558       O  0.89086782  0.76105247  0.35850413    -0.60400
H2559       H  0.78614188  0.72565656  0.41230233     0.16530
O2560       O  0.81064302  0.73062688  0.47869957    -0.60500
H2561       H  0.79398249  0.70902587  0.47441863     0.43510
H2562       H  0.89989584  0.73814852  0.35045979     0.43480
C2563       C  0.85016743  0.70884864  0.09192976    -0.05580
C2564       C  0.84091841  0.68767419  0.06119417    -0.33010
C2565       C  0.85511351  0.69765657  0.02744429     0.36240
C2566       C  0.87374503  0.73202479  0.02355239    -0.05940
C2567       C  0.88282691  0.75172018  0.05575814    -0.32910
C2568       C  0.87464348  0.73849822  0.08899428     0.36150
H2569       H  0.82257160  0.66404778  0.06322364     0.16520
O2570       O  0.85161639  0.67384377  0.99881327    -0.60400
H2571       H  0.89947708  0.77652617  0.05663839     0.16530
O2572       O  0.88641359  0.75822185  0.11891331    -0.60500
H2573       H  0.90439005  0.74403129  0.13051641     0.43530
H2574       H  0.82672513  0.66301681  0.99844397     0.43480
C2575       C  0.80126128  0.89196516  0.30995003    -0.05580
C2576       C  0.77712673  0.89254633  0.33786565    -0.33010
C2577       C  0.76069554  0.92341138  0.34688522     0.36240
C2578       C  0.77082029  0.95679747  0.33042744    -0.05940
C2579       C  0.79624232  0.95567473  0.30279850    -0.32910
C2580       C  0.81084428  0.92393229  0.29245734     0.36150
H2581       H  0.76791443  0.86763822  0.35038724     0.16520
O2582       O  0.73660886  0.92064902  0.37397098    -0.60400
H2583       H  0.80674526  0.97994277  0.29028473     0.16530
O2584       O  0.83318116  0.92405283  0.26388781    -0.60500
H2585       H  0.85709376  0.93181722  0.27414326     0.43530
H2586       H  0.71436767  0.90922345  0.36270348     0.43480
C2587       C  0.77377799  0.59552759  0.29492174    -0.05580
C2588       C  0.76476028  0.56353529  0.27535880    -0.33010
C2589       C  0.76040694  0.53015658  0.29270419     0.36240
C2590       C  0.76771061  0.52782941  0.33025670    -0.05940
C2591       C  0.77465326  0.56051816  0.34956259    -0.32910
C2592       C  0.77808570  0.59356285  0.33249126     0.36150
H2593       H  0.75928021  0.56456958  0.24675742     0.16520
O2594       O  0.74768877  0.50060244  0.27275401    -0.60400
H2595       H  0.77911370  0.56032785  0.37832648     0.16530
O2596       O  0.78585647  0.62404526  0.35306768    -0.60500
H2597       H  0.81217757  0.62808999  0.35329545     0.43530
H2598       H  0.72191002  0.50314375  0.26905577     0.43480
C2599       C  0.98454807  0.85627421  0.20777127    -0.05580
C2600       C  0.95670027  0.87253449  0.22522693    -0.33010
C2601       C  0.92091195  0.86423056  0.21626884     0.36240
C2602       C  0.91048631  0.83779675  0.19013460    -0.05940
C2603       C  0.93730260  0.82350362  0.17006038    -0.32910
C2604       C  0.97394107  0.83340590  0.17772356     0.36150
H2605       H  0.96201393  0.89313572  0.24569077     0.16520
O2606       O  0.89577883  0.88044411  0.23545583    -0.60400
H2607       H  0.93010544  0.80376857  0.14920230     0.16530
O2608       O  0.99909266  0.82183756  0.15499725    -0.60500
H2609       H  0.99246379  0.79613283  0.14949250     0.43530
H2610       H  0.88908213  0.90048553  0.22036983     0.43480
C2611       C  0.61517833  0.80563370  0.21224398    -0.05580
C2612       C  0.58112639  0.78717148  0.21151436    -0.33010
C2613       C  0.54999114  0.80583078  0.21637417     0.36240
C2614       C  0.55338126  0.84362863  0.22119812    -0.05940
C2615       C  0.58802918  0.86048915  0.22552874    -0.32910
C2616       C  0.61783825  0.84295600  0.21875666     0.36150
H2617       H  0.57889182  0.75850537  0.20738465     0.16520
O2618       O  0.51730228  0.78709894  0.21876939    -0.60400
H2619       H  0.59222718  0.88923858  0.22927502     0.16530
O2620       O  0.64963304  0.86344529  0.21620143    -0.60500
H2621       H  0.65633378  0.87164960  0.24107933     0.43530
H2622       H  0.51592497  0.76831893  0.19958565     0.43480
C2623       C  0.75875798  0.96955699  0.12015133    -0.05580
C2624       C  0.76548639  0.96789185  0.15766645    -0.33010
C2625       C  0.76264537  0.93496508  0.17586724     0.36240
C2626       C  0.75554016  0.90236923  0.15657290    -0.05940
C2627       C  0.75076878  0.90370939  0.11924333    -0.32910
C2628       C  0.75234670  0.93630963  0.10121135     0.36150
H2629       H  0.77367354  0.99186206  0.17320459     0.16520
O2630       O  0.76893823  0.93488574  0.21222441    -0.60400
H2631       H  0.74576520  0.87904208  0.10365204     0.16530
O2632       O  0.74644754  0.93536368  0.06474523    -0.60500
H2633       H  0.76805855  0.92617570  0.05441603     0.43530
H2634       H  0.74544822  0.93738411  0.22307591     0.43480
C2635       C  0.75708053  0.54156694  0.11940977    -0.05580
C2636       C  0.73516869  0.54380839  0.14978335    -0.33010
C2637       C  0.72211805  0.57603712  0.16077139     0.36240
C2638       C  0.72913894  0.60703482  0.14082191    -0.05940
C2639       C  0.74986142  0.60548319  0.11048833    -0.32910
C2640       C  0.76501679  0.57419868  0.10051244     0.36150
H2641       H  0.72600576  0.52039728  0.16435317     0.16520
O2642       O  0.70461791  0.57760771  0.19261635    -0.60400
H2643       H  0.75771300  0.62995820  0.09650633     0.16530
O2644       O  0.78772438  0.57603548  0.07203342    -0.60500
H2645       H  0.77517255  0.58708549  0.05192201     0.43530
H2646       H  0.67902747  0.57300683  0.18605760     0.43480
C2647       C  0.54918352  0.92983327  0.11841459    -0.05580
C2648       C  0.52883025  0.94434410  0.14549039    -0.33010
C2649       C  0.51984312  0.92539656  0.17616466     0.36240
C2650       C  0.53515349  0.89313241  0.18310410    -0.05940
C2651       C  0.55737520  0.87978206  0.15602793    -0.32910
C2652       C  0.56459154  0.89796296  0.12438206     0.36150
H2653       H  0.51598019  0.96859067  0.14051921     0.16520
O2654       O  0.49320633  0.93666220  0.19707156    -0.60400
H2655       H  0.56751061  0.85368673  0.15760584     0.16530
O2656       O  0.58297256  0.88213342  0.09787246    -0.60500
H2657       H  0.60821032  0.89101438  0.10222226     0.43530
H2658       H  0.50356575  0.95819092  0.21043144     0.43480
C2659       C  0.52717613  0.89199047  0.25337361    -0.05580
C2660       C  0.54289202  0.92758935  0.25764611    -0.33010
C2661       C  0.54275318  0.94653132  0.29070654     0.36240
C2662       C  0.52865822  0.92959206  0.32138208    -0.05940
C2663       C  0.51655811  0.89306483  0.31806433    -0.32910
C2664       C  0.51598334  0.87445170  0.28507384     0.36150
H2665       H  0.55575828  0.94114059  0.23549147     0.16520
O2666       O  0.55652976  0.98154531  0.29250818    -0.60400
H2667       H  0.50703349  0.87846762  0.34127046     0.16530
O2668       O  0.50442396  0.83871675  0.28399423    -0.60500
H2669       H  0.97852376  0.83762962  0.28846490     0.43530
H2670       H  0.53652294  0.99577097  0.28546655     0.43480
C2671       C  0.73370316  0.99173366  0.37454477    -0.05580
C2672       C  0.70123362  0.98362839  0.35542808    -0.33010
C2673       C  0.66825008  0.98139217  0.37232483     0.36240
C2674       C  0.66613846  0.98728449  0.40967667    -0.05940
C2675       C  0.69802891  0.99633376  0.42917851    -0.32910
C2676       C  0.73132682  0.99982596  0.41194604     0.36150
H2677       H  0.70149669  0.47821637  0.32681245     0.16520
O2678       O  0.63797070  0.97259203  0.35193943    -0.60400
H2679       H  0.69700061  0.00273099  0.45758464     0.16530
O2680       O  0.76074826  0.01270715  0.43180702    -0.60500
H2681       H  0.75780250  0.03847041  0.43622308     0.43530
H2682       H  0.63297140  0.49485672  0.33946194     0.43480
C2683       C  0.87137886  0.96465633  0.39162209    -0.05580
C2684       C  0.86878385  0.98915383  0.36412942    -0.33010
C2685       C  0.83720139  0.50451237  0.35653179     0.36240
C2686       C  0.80482399  0.99228085  0.37352742    -0.05940
C2687       C  0.80794999  0.96650847  0.40078360    -0.32910
C2688       C  0.84061648  0.95327670  0.41001259     0.36150
H2689       H  0.89275123  0.49969826  0.35095900     0.16520
O2690       O  0.83828073  0.52949012  0.33003416    -0.60400
H2691       H  0.78460628  0.95475325  0.41379471     0.16530
O2692       O  0.84253406  0.93055173  0.43831502    -0.60500
H2693       H  0.83955755  0.90611676  0.42742798     0.43530
H2694       H  0.84917759  0.55193360  0.34156357     0.43480
C2695       C  0.65679509  0.53571247  0.05924580    -0.05580
C2696       C  0.65927815  0.51424107  0.08923482    -0.33010
C2697       C  0.69006906  0.49748335  0.09713491     0.36240
C2698       C  0.72202997  0.50559692  0.07776522    -0.05940
C2699       C  0.71897201  0.52781136  0.04754671    -0.32910
C2700       C  0.68690092  0.54204543  0.03806641     0.36150
H2701       H  0.63562046  0.50695310  0.10444184     0.16520
O2702       O  0.68900834  0.47533211  0.12606726    -0.60400
H2703       H  0.74168817  0.53630070  0.03193355     0.16530
O2704       O  0.68455894  0.56016645  0.50654820    -0.60500
H2705       H  0.69045309  0.58572300  0.51323168     0.43530
H2706       H  0.67819152  0.45190775  0.11671292     0.43480
C2707       C  0.85996367  0.51330840  0.04046412    -0.05580
C2708       C  0.85858250  0.51893868  0.07766217    -0.33010
C2709       C  0.82646634  0.51505877  0.09585785     0.36240
C2710       C  0.79366958  0.50621738  0.07705343    -0.05940
C2711       C  0.79543911  0.49892673  0.03969347    -0.32910
C2712       C  0.82796430  0.50322357  0.02143454     0.36150
H2713       H  0.88293373  0.52587173  0.09308567     0.16520
O2714       O  0.82732546  0.52127492  0.13228059    -0.60400
H2715       H  0.77190055  0.48908534  0.02441469     0.16530
O2716       O  0.82842854  0.49522486  0.48544824    -0.60500
H2717       H  0.82610883  0.51832062  0.47337345     0.43530
H2718       H  0.83702428  0.49987287  0.14282815     0.43480
C2719       C  0.92297237  0.71749772  0.48485028    -0.05580
C2720       C  0.92355434  0.69401689  0.45466246    -0.33010
C2721       C  0.94488304  0.66543213  0.45361974     0.36240
C2722       C  0.96517624  0.65717670  0.48396278    -0.05940
C2723       C  0.96790298  0.68131105  0.01298018    -0.32910
C2724       C  0.94742400  0.71120389  0.01376300     0.36150
H2725       H  0.90577964  0.69509327  0.43186757     0.16520
O2726       O  0.94455503  0.64455283  0.42286387    -0.60400
H2727       H  0.98411011  0.67580128  0.03626753     0.16530
O2728       O  0.95086038  0.73324737  0.04364194    -0.60500
H2729       H  0.94462947  0.71790166  0.06440268     0.43530
H2730       H  0.92088657  0.63086986  0.42173315     0.43480
C2731       C  0.92837653  0.85721885  0.01352793    -0.05580
C2732       C  0.89259388  0.84701735  0.50574453    -0.33010
C2733       C  0.88127084  0.81124698  0.49694081     0.36240
C2734       C  0.90625608  0.78468511  0.49351210    -0.05940
C2735       C  0.94240612  0.79598435  0.00014399    -0.32910
C2736       C  0.95290108  0.83095077  0.01242398     0.36150
H2737       H  0.87349645  0.86713105  0.50505968     0.16520
O2738       O  0.84544430  0.80235719  0.49250060    -0.60400
H2739       H  0.96285347  0.77780745  0.99683599     0.16530
O2740       O  0.98806569  0.84024857  0.02074071    -0.60500
H2741       H  0.99047248  0.83659436  0.04694175     0.43530
H2742       H  0.83893987  0.81190403  0.46880093     0.43480
C2743       C  0.59821071  0.64612190  0.43813069    -0.05580
C2744       C  0.63372928  0.65502815  0.44837709    -0.33010
C2745       C  0.64657465  0.69074505  0.45592960     0.36240
C2746       C  0.62375541  0.71933402  0.45372279    -0.05940
C2747       C  0.58902198  0.70997798  0.43967693    -0.32910
C2748       C  0.57590775  0.67409571  0.43349171     0.36150
H2749       H  0.65116857  0.63386605  0.45300335     0.16520
O2750       O  0.68177600  0.69725646  0.96580404    -0.60400
H2751       H  0.57120400  0.72981253  0.43278929     0.16530
O2752       O  0.54022479  0.66636689  0.42625072    -0.60500
H2753       H  0.53477921  0.67968766  0.40430250     0.43530
H2754       H  0.68383488  0.68814882  0.99053726     0.43480
C2755       C  0.57100015  0.84890453  0.46039750    -0.05580
C2756       C  0.60807482  0.85383465  0.45946458    -0.33010
C2757       C  0.62937561  0.82586624  0.46398757     0.36240
C2758       C  0.61421932  0.79004686  0.46755083    -0.05940
C2759       C  0.57687232  0.78556751  0.47185640    -0.32910
C2760       C  0.55525651  0.81421865  0.46619667     0.36150
H2761       H  0.62123566  0.88032638  0.45577838     0.16520
O2762       O  0.66549622  0.83399451  0.46353198    -0.60400
H2763       H  0.56404223  0.76022516  0.97976587     0.16530
O2764       O  0.51909462  0.80796921  0.96692982    -0.60500
H2765       H  0.51161003  0.80136728  0.94186109     0.43530
H2766       H  0.67095500  0.84233307  0.43896017     0.43480
C2767       C  0.50897659  0.60918716  0.20081703    -0.05580
C2768       C  0.49699981  0.57241684  0.19835279    -0.33010
C2769       C  0.49368983  0.55354199  0.16486439     0.36240
C2770       C  0.50532008  0.57018353  0.13305123    -0.05940
C2771       C  0.01928276  0.60615546  0.13592550    -0.32910
C2772       C  0.02098759  0.62537583  0.16851786     0.36150
H2773       H  0.49006036  0.55772018  0.22213588     0.16520
O2774       O  0.47851603  0.51907848  0.16349890    -0.60400
H2775       H  0.02865863  0.62031367  0.11240439     0.16530
O2776       O  0.03421086  0.66064275  0.16841081    -0.60500
H2777       H  0.01617422  0.67363819  0.15538329     0.43530
H2778       H  0.49167034  0.00624133  0.18171304     0.43480
C2779       C  0.47983009  0.58665436  0.34048694    -0.05580
C2780       C  0.95726544  0.57818578  0.31061784    -0.33010
C2781       C  0.96574252  0.59271794  0.27662010     0.36240
C2782       C  0.49924428  0.61244832  0.27161050    -0.05940
C2783       C  0.52005306  0.62119664  0.30313729    -0.32910
C2784       C  0.50975273  0.61047444  0.33659909     0.36150
H2785       H  0.93366037  0.56005386  0.31343892     0.16520
O2786       O  0.94074178  0.58910983  0.24916792    -0.60400
H2787       H  0.54378766  0.63930942  0.30363723     0.16530
O2788       O  0.53105088  0.62124964  0.36580072    -0.60500
H2789       H  0.55447109  0.61182242  0.36149182     0.43530
H2790       H  0.93333368  0.56314459  0.24671100     0.43480
C2791       C  0.98179045  0.66150839  0.23404432    -0.05580
C2792       C  0.95819544  0.66188053  0.20411408    -0.33010
C2793       C  0.92830596  0.68111100  0.20460202     0.36240
C2794       C  0.91968482  0.69955412  0.23595012    -0.05940
C2795       C  0.94381188  0.70255837  0.26478204    -0.32910
C2796       C  0.97497705  0.68447175  0.26397813     0.36150
H2797       H  0.96056679  0.64553762  0.18039111     0.16520
O2798       O  0.90671344  0.68062650  0.17439188    -0.60400
H2799       H  0.93761663  0.71725760  0.28886286     0.16530
O2800       O  0.99704352  0.68717353  0.29383542    -0.60500
H2801       H  0.00215348  0.71308913  0.29943986     0.43530
H2802       H  0.89422581  0.65627234  0.17295808     0.43480
C2803       C  0.54926281  0.64782717  0.24080683    -0.05580
C2804       C  0.57513960  0.62262909  0.24525455    -0.33010
C2805       C  0.61049700  0.63326158  0.25504257     0.36240
C2806       C  0.62122518  0.66963881  0.26053706    -0.05940
C2807       C  0.59619025  0.69489031  0.25530592    -0.32910
C2808       C  0.56094174  0.68459975  0.24443961     0.36150
H2809       H  0.56743253  0.59423699  0.24205669     0.16520
O2810       O  0.63494830  0.60811753  0.25657793    -0.60400
H2811       H  0.60500957  0.72317981  0.25628263     0.16530
O2812       O  0.53943429  0.71058321  0.23420654    -0.60500
H2813       H  0.54104976  0.72895111  0.25380077     0.43530
H2814       H  0.63593286  0.60115955  0.28210814     0.43480
C2815       C  0.00956590  0.63269117  0.73640335    -0.02600
O2816       O  0.95816596  0.56232769  0.89628100    -0.86600
O2817       O  0.62306454  0.97372716  0.95655883    -0.86770
O2818       O  0.57620263  0.58524725  0.92025091    -0.88440
O2819       O  0.54271728  0.97945756  0.86361335    -0.87190
O2820       O  0.50484929  0.93163273  0.87939427    -0.86780
O2821       O  0.57429651  0.60595325  0.97865871    -0.88150
O2822       O  0.60860299  0.00738633  0.90838284    -0.86630
O2823       O  0.51198001  0.54984790  0.87327274    -0.86220
Zr2824     Zr  0.54785049  0.52205329  0.91587964     2.84310
O2825       O  0.54626117  0.96400820  0.93819654    -1.08190
O2826       O  0.51557980  0.55767570  0.95331917    -1.08920
C2827       C  0.48202937  0.56379906  0.87169240     1.06510
C2828       C  0.63042915  0.98938328  0.92629819     1.06450
C2829       C  0.58223235  0.60968084  0.94559888     1.09430
C2830       C  0.52544160  0.94845955  0.85697475     1.07210
H2831       H  0.59700973  0.53632739  0.97238465     0.32770
O2832       O  0.57275925  0.52607276  0.97369364    -1.29150
H2833       H  0.97762651  0.99570740  0.89460695     0.32440
O2834       O  0.48854536  0.99771527  0.91828909    -1.30830
O2835       O  0.56789860  0.94565748  0.55851386    -0.86600
O2836       O  0.90307793  0.52804277  0.99427112    -0.88090
O2837       O  0.60084282  0.55748214  0.53934062    -0.86670
O2838       O  0.52283324  0.88686982  0.94622622    -0.86720
O2839       O  0.92708380  0.94318666  0.91238216    -0.86440
O2840       O  0.50691889  0.61529873  0.50374361    -0.86240
O2841       O  0.98703917  0.52116975  0.58987918    -0.86610
O2842       O  0.94823426  0.91814148  0.53191768    -0.86070
O2843       O  0.52497266  0.56865695  0.57348392    -0.87140
O2844       O  0.95110796  0.89759824  0.97350518    -0.86300
O2845       O  0.61604128  0.00025984  0.52848453    -0.86690
O2846       O  0.95682429  0.59635192  0.97066544    -0.86420
O2847       O  0.91097861  0.99995978  0.92444718    -0.86070
O2848       O  0.57079997  0.90656644  0.98201331    -0.86470
O2849       O  0.51077332  0.94972335  0.57722337    -0.86770
O2850       O  0.91755487  0.99468383  0.54259488    -0.88110
Zr2851     Zr  0.57001458  0.96837215  0.99635974     2.83100
Zr2852     Zr  0.95655824  0.53407199  0.95577626     2.83500
Zr2853     Zr  0.54049950  0.56162839  0.51141493     2.84090
Zr2854     Zr  0.48703264  0.93995909  0.94080200     2.83360
Zr2855     Zr  0.97809137  0.98034228  0.53558165     2.84220
O2856       O  0.95411594  0.97612887  0.97756516    -1.08680
O2857       O  0.53752902  0.00392490  0.53365484    -1.08180
C2858       C  0.54295082  0.94237235  0.58203691     1.06480
C2859       C  0.89569687  0.51210439  0.52427775     1.09100
C2860       C  0.62214700  0.53187846  0.54122913     1.06650
C2861       C  0.55267644  0.88240723  0.96305193     1.07010
C2862       C  0.90541628  0.96843901  0.91100201     1.06590
C2863       C  0.97758842  0.62076242  0.98659727     1.06150
C2864       C  0.50549103  0.55164575  0.59665975     1.06570
C2865       C  0.94242933  0.89401662  0.50636810     1.06080
H2866       H  0.96704904  0.55379107  0.52877142     0.32760
O2867       O  0.98059019  0.53867828  0.51395333    -1.29780
H2868       H  0.51142374  0.92062144  0.50948740     0.32790
O2869       O  0.51130235  0.94406423  0.99920484    -1.31160
C2870       C  0.75837400  0.50518990  0.59857663    -0.02600
O2871       O  0.68121799  0.68917537  0.78073166    -0.86600
O2872       O  0.74747428  0.77577129  0.61051280    -0.86770
O2873       O  0.65327328  0.75853175  0.69413415    -0.88440
O2874       O  0.70918040  0.66340325  0.66055682    -0.87190
O2875       O  0.76464504  0.64553768  0.67438528    -0.86780
O2876       O  0.67353294  0.80530925  0.73093140    -0.88150
O2877       O  0.69937291  0.73872555  0.62662739    -0.86630
O2878       O  0.66323331  0.68891571  0.72126435    -0.86220
Zr2879     Zr  0.70640970  0.72334392  0.68888046     2.84310
O2880       O  0.76422956  0.72328256  0.66833009    -1.08190
O2881       O  0.71004713  0.74853042  0.74676822    -1.08920
C2882       C  0.65818370  0.68256790  0.75443515     1.06510
C2883       C  0.71672448  0.75821755  0.60367752     1.06450
C2884       C  0.64905327  0.78782639  0.71215649     1.09430
C2885       C  0.73365376  0.64099585  0.65996659     1.07210
H2886       H  0.71630848  0.79655355  0.67029719     0.32770
O2887       O  0.73095466  0.78267884  0.68532770    -1.29150
H2888       H  0.72914797  0.66592157  0.72958206     0.32440
O2889       O  0.74002192  0.69007526  0.72817160    -1.30830
O2890       O  0.85174794  0.81180067  0.66775627    -0.86600
O2891       O  0.78475835  0.72401792  0.83991898    -0.88090
O2892       O  0.74107150  0.85967272  0.70333848    -0.86670
O2893       O  0.82602415  0.68947489  0.64844594    -0.86720
O2894       O  0.78992778  0.63769928  0.74787304    -0.86440
O2895       O  0.70980539  0.80766181  0.80370574    -0.86240
O2896       O  0.82299970  0.83617313  0.78883052    -0.86610
O2897       O  0.87869316  0.74125833  0.75499804    -0.86070
O2898       O  0.76782430  0.85390933  0.77389898    -0.87140
O2899       O  0.85927079  0.68949857  0.72431855    -0.86300
O2900       O  0.77464594  0.84399023  0.65577501    -0.86690
O2901       O  0.71381673  0.75111983  0.82574425    -0.86420
O2902       O  0.75636636  0.65433347  0.79498731    -0.86070
O2903       O  0.81292369  0.74221118  0.62250398    -0.86470
O2904       O  0.86981540  0.80926617  0.72692541    -0.86770
O2905       O  0.83297996  0.76039291  0.82292561    -0.88110
Zr2906     Zr  0.78889474  0.78250821  0.66389684     2.83100
Zr2907     Zr  0.74413093  0.71574512  0.78566692     2.83500
Zr2908     Zr  0.73523383  0.80700652  0.74326358     2.84090
Zr2909     Zr  0.79788535  0.69040260  0.70764324     2.83360
Zr2910     Zr  0.82629681  0.77566064  0.76048579     2.84220
O2911       O  0.80233026  0.71600065  0.76510808    -1.08680
O2912       O  0.79254512  0.80839205  0.72150959    -1.08180
C2913       C  0.87478643  0.81835247  0.69428023     1.06480
C2914       C  0.81559398  0.74161127  0.84641432     1.09100
C2915       C  0.75710321  0.86651649  0.67335278     1.06650
C2916       C  0.82680823  0.71201631  0.62246387     1.07010
C2917       C  0.77355185  0.63136039  0.77782643     1.06590
C2918       C  0.70590642  0.78361187  0.82818974     1.06150
C2919       C  0.79838131  0.85858350  0.78915323     1.06570
C2920       C  0.88363087  0.71106944  0.73921735     1.06080
H2921       H  0.77134980  0.78623729  0.80576795     0.32760
O2922       O  0.76933998  0.77488293  0.78229156    -1.29780
H2923       H  0.84598252  0.74859534  0.69294480     0.32790
O2924       O  0.82260903  0.74933938  0.70285021    -1.31160
C2925       C  0.63924503  0.75900838  0.96218856    -0.02600
C2926       C  0.52434624  0.87051533  0.71645996    -0.02600
C2927       C  0.89264218  0.74417880  0.98840479    -0.02600
C2928       C  0.76871632  0.99257374  0.85224284    -0.02600
C2929       C  0.65854327  0.76850114  0.92674091    -0.05580
C2930       C  0.69550980  0.76817368  0.92322486    -0.33010
C2931       C  0.71233495  0.78187163  0.89294312     0.36240
C2932       C  0.69206398  0.79162082  0.86306481    -0.05940
C2933       C  0.65540824  0.79105900  0.86526713    -0.32910
C2934       C  0.63845493  0.77868447  0.89600837     0.36150
H2935       H  0.71174663  0.75603053  0.94296650     0.16520
O2936       O  0.74847275  0.78065485  0.89053551    -0.60400
H2937       H  0.63948969  0.79647442  0.84170853     0.16530
O2938       O  0.60196789  0.77667103  0.89560503    -0.60500
H2939       H  0.59416368  0.75703226  0.87828437     0.43530
H2940       H  0.75862904  0.80531189  0.89661125     0.43480
C2941       C  0.66138391  0.75988602  0.49873815    -0.05580
C2942       C  0.69537054  0.77876354  0.50492870    -0.33010
C2943       C  0.71400646  0.77818557  0.53811326     0.36240
C2944       C  0.69861445  0.75994571  0.56736283    -0.05940
C2945       C  0.66401861  0.74311576  0.56217249    -0.32910
C2946       C  0.64548958  0.74358624  0.52919076     0.36150
H2947       H  0.70812048  0.79525365  0.98487398     0.16520
O2948       O  0.74697218  0.79638802  0.54163255    -0.60400
H2949       H  0.65053108  0.72953926  0.58406816     0.16530
O2950       O  0.61148702  0.72750386  0.52707158    -0.60500
H2951       H  0.59636973  0.74498481  0.53811507     0.43530
H2952       H  0.76388251  0.77935582  0.53300240     0.43480
C2953       C  0.86891835  0.74345121  0.95281296    -0.05580
C2954       C  0.88656299  0.75485275  0.92143358    -0.33010
C2955       C  0.87013540  0.75249724  0.88745625     0.36240
C2956       C  0.83349435  0.74126923  0.88311484    -0.05940
C2957       C  0.81455354  0.73259517  0.91441294    -0.32910
C2958       C  0.83151665  0.73414373  0.94900425     0.36150
H2959       H  0.91464879  0.76371907  0.92306761     0.16520
O2960       O  0.89086637  0.76105160  0.85850761    -0.60400
H2961       H  0.78613911  0.72566352  0.91230711     0.16530
O2962       O  0.81063945  0.73064244  0.97870513    -0.60500
H2963       H  0.79397600  0.70904340  0.97442532     0.43510
H2964       H  0.89989343  0.73814620  0.85046627     0.43480
C2965       C  0.85016276  0.70885900  0.59192887    -0.05580
C2966       C  0.84091924  0.68767663  0.56119702    -0.33010
C2967       C  0.85511729  0.69765300  0.52744644     0.36240
C2968       C  0.87374701  0.73202118  0.52354954    -0.05940
C2969       C  0.88282513  0.75172304  0.55575263    -0.32910
C2970       C  0.87463748  0.73850878  0.58899025     0.36150
H2971       H  0.82257458  0.66404902  0.56322968     0.16520
O2972       O  0.85162434  0.67383498  0.49881958    -0.60400
H2973       H  0.89947520  0.77652900  0.55663078     0.16530
O2974       O  0.88640465  0.75823854  0.61890647    -0.60500
H2975       H  0.90437270  0.74404560  0.63052047     0.43530
H2976       H  0.82673366  0.66300641  0.49844974     0.43480
C2977       C  0.80126889  0.89196320  0.80995229    -0.05580
C2978       C  0.77713620  0.89254614  0.83786905    -0.33010
C2979       C  0.76070770  0.92341223  0.84688833     0.36240
C2980       C  0.77083526  0.95679749  0.83042979    -0.05940
C2981       C  0.79625505  0.95567312  0.80279973    -0.32910
C2982       C  0.81085291  0.92392902  0.79245777     0.36150
H2983       H  0.76792250  0.86763870  0.85039118     0.16520
O2984       O  0.73661994  0.92065100  0.87397331    -0.60400
H2985       H  0.80675756  0.97994053  0.79028448     0.16530
O2986       O  0.83318650  0.92404649  0.76388583    -0.60500
H2987       H  0.85709939  0.93181621  0.77413735     0.43530
H2988       H  0.71437883  0.90922563  0.86270534     0.43480
C2989       C  0.77378049  0.59552778  0.79491834    -0.05580
C2990       C  0.76476107  0.56353512  0.77535645    -0.33010
C2991       C  0.76040642  0.53015687  0.79270287     0.36240
C2992       C  0.76771067  0.52783018  0.83025535    -0.05940
C2993       C  0.77465540  0.56051920  0.84956022    -0.32910
C2994       C  0.77808914  0.59356344  0.83248797     0.36150
H2995       H  0.75928033  0.56456885  0.74675520     0.16520
O2996       O  0.74768618  0.50060273  0.77275377    -0.60400
H2997       H  0.77911640  0.56032945  0.87832406     0.16530
O2998       O  0.78586144  0.62404598  0.85306378    -0.60500
H2999       H  0.81218256  0.62809012  0.85329035     0.43530
H3000       H  0.72190756  0.50314531  0.76905632     0.43480
C3001       C  0.98454798  0.85627587  0.70777155    -0.05580
C3002       C  0.95670072  0.87253451  0.72522989    -0.33010
C3003       C  0.92091234  0.86423167  0.71627220     0.36240
C3004       C  0.91048585  0.83779924  0.69013720    -0.05940
C3005       C  0.93730144  0.82350582  0.67006204    -0.32910
C3006       C  0.97394008  0.83340816  0.67772381     0.36150
H3007       H  0.96201484  0.89313483  0.74569455     0.16520
O3008       O  0.89577986  0.88044564  0.73545959    -0.60400
H3009       H  0.93010368  0.80377120  0.64920381     0.16530
O3010       O  0.99909098  0.82184073  0.65499610    -0.60500
H3011       H  0.99246295  0.79613570  0.64949214     0.43530
H3012       H  0.88908316  0.90048696  0.72037343     0.43480
C3013       C  0.61517870  0.80563722  0.71224648    -0.05580
C3014       C  0.58112680  0.78717570  0.71151562    -0.33010
C3015       C  0.54999197  0.80583570  0.71637247     0.36240
C3016       C  0.55338233  0.84363390  0.72119237    -0.05940
C3017       C  0.58803025  0.86049493  0.72552167    -0.32910
C3018       C  0.61783962  0.84295994  0.71875626     0.36150
H3019       H  0.57889200  0.75850933  0.70738831     0.16520
O3020       O  0.51730322  0.78710414  0.71876935    -0.60400
H3021       H  0.59222823  0.88924470  0.72926521     0.16530
O3022       O  0.64963620  0.86344717  0.71620587    -0.60500
H3023       H  0.65633324  0.87165153  0.74108463     0.43530
H3024       H  0.51592525  0.76832359  0.69958613     0.43480
C3025       C  0.75869244  0.96954347  0.62013282    -0.05580
C3026       C  0.76554310  0.96789437  0.65762524    -0.33010
C3027       C  0.76269857  0.93498227  0.67584717     0.36240
C3028       C  0.75550210  0.90237949  0.65658230    -0.05940
C3029       C  0.75063532  0.90370274  0.61926210    -0.32910
C3030       C  0.75220240  0.93629371  0.60121473     0.36150
H3031       H  0.77378441  0.99187161  0.67313206     0.16520
O3032       O  0.76901602  0.93492689  0.71220046    -0.60400
H3033       H  0.74556469  0.87902981  0.60369252     0.16530
O3034       O  0.74622204  0.93533888  0.56475982    -0.60500
H3035       H  0.76781725  0.92616561  0.55438187     0.43530
H3036       H  0.74552704  0.93740650  0.72306247     0.43480
C3037       C  0.75708484  0.54157403  0.61941064    -0.05580
C3038       C  0.73518060  0.54381835  0.64978946    -0.33010
C3039       C  0.72212952  0.57604717  0.66077608     0.36240
C3040       C  0.72913985  0.60704168  0.64081918    -0.05940
C3041       C  0.74985443  0.60548742  0.61048034    -0.32910
C3042       C  0.76501200  0.57420341  0.60050606     0.36150
H3043       H  0.72602280  0.52040993  0.66436542     0.16520
O3044       O  0.70464185  0.57762230  0.69262799    -0.60400
H3045       H  0.75769882  0.62996069  0.59649234     0.16530
O3046       O  0.78771218  0.57603780  0.57202083    -0.60500
H3047       H  0.77515529  0.58708597  0.55191158     0.43530
H3048       H  0.67904982  0.57301031  0.68608084     0.43480
C3049       C  0.54915952  0.92983669  0.61840723    -0.05580
C3050       C  0.52880647  0.94434349  0.64548465    -0.33010
C3051       C  0.51982919  0.92539695  0.67616134     0.36240
C3052       C  0.53514819  0.89313726  0.68310036    -0.05940
C3053       C  0.55737151  0.87979167  0.65602301    -0.32910
C3054       C  0.56457874  0.89797221  0.62437484     0.36150
H3055       H  0.51594951  0.96858571  0.64051374     0.16520
O3056       O  0.49319184  0.93665763  0.69707043    -0.60400
H3057       H  0.56751449  0.85369984  0.65760139     0.16530
O3058       O  0.58296321  0.88214769  0.59786465    -0.60500
H3059       H  0.60820029  0.89102941  0.60221783     0.43530
H3060       H  0.50355034  0.95818380  0.71043485     0.43480
C3061       C  0.52717811  0.89199446  0.75336950    -0.05580
C3062       C  0.54289236  0.92759412  0.75763992    -0.33010
C3063       C  0.54275739  0.94653557  0.79070069     0.36240
C3064       C  0.52866922  0.92959476  0.82137822    -0.05940
C3065       C  0.51656873  0.89306767  0.81806148    -0.32910
C3066       C  0.51598924  0.87445519  0.78507069     0.36150
H3067       H  0.55575387  0.94114643  0.73548324     0.16520
O3068       O  0.55653019  0.98155085  0.79250057    -0.60400
H3069       H  0.50704789  0.87847003  0.84126881     0.16530
O3070       O  0.50442923  0.83872037  0.78399165    -0.60500
H3071       H  0.97852981  0.83763356  0.78846652     0.43530
H3072       H  0.53651924  0.99577429  0.78546658     0.43480
C3073       C  0.73372281  0.99173402  0.87454362    -0.05580
C3074       C  0.70125454  0.98362930  0.85542478    -0.33010
C3075       C  0.66827217  0.98138640  0.87232101     0.36240
C3076       C  0.66616199  0.98727120  0.90967349    -0.05940
C3077       C  0.69805041  0.99632137  0.92917726    -0.32910
C3078       C  0.73134703  0.99982128  0.91194545     0.36150
H3079       H  0.70149540  0.47821548  0.82681269     0.16520
O3080       O  0.63799277  0.97258789  0.85193489    -0.60400
H3081       H  0.69702094  0.00271372  0.95758420     0.16530
O3082       O  0.76076706  0.01270495  0.93180736    -0.60500
H3083       H  0.75781868  0.03846771  0.93622336     0.43530
H3084       H  0.63296966  0.49485642  0.83946130     0.43480
C3085       C  0.87140209  0.96468117  0.89164378    -0.05580
C3086       C  0.86880697  0.98917743  0.86415021    -0.33010
C3087       C  0.83720045  0.50451041  0.85653041     0.36240
C3088       C  0.80484151  0.99228165  0.87352828    -0.05940
C3089       C  0.80796851  0.96651136  0.90078663    -0.32910
C3090       C  0.84063800  0.95329181  0.91002654     0.36150
H3091       H  0.89274934  0.49969198  0.85095582     0.16520
O3092       O  0.83828086  0.52948796  0.83003259    -0.60400
H3093       H  0.78462445  0.95474991  0.91379256     0.16530
O3094       O  0.84255508  0.93056659  0.93832883    -0.60500
H3095       H  0.83957294  0.90613165  0.92744215     0.43530
H3096       H  0.84917926  0.55193095  0.84156170     0.43480
C3097       C  0.65679886  0.53570863  0.55924634    -0.05580
C3098       C  0.65928333  0.51424636  0.58924169    -0.33010
C3099       C  0.69007508  0.49749178  0.59714619     0.36240
C3100       C  0.72203446  0.50559836  0.57777168    -0.05940
C3101       C  0.71897434  0.52780277  0.54754602    -0.32910
C3102       C  0.68690277  0.54203380  0.53806285     0.36150
H3103       H  0.63562674  0.50696403  0.60445237     0.16520
O3104       O  0.68901741  0.47535213  0.62608751    -0.60400
H3105       H  0.74168867  0.53628782  0.53192876     0.16530
O3106       O  0.68455987  0.56018966  0.00655846    -0.60500
H3107       H  0.69045109  0.58574425  0.01325196     0.43530
H3108       H  0.67820454  0.45192290  0.61674190     0.43480
C3109       C  0.85997029  0.51331603  0.54047009    -0.05580
C3110       C  0.85858837  0.51894909  0.57766782    -0.33010
C3111       C  0.82647172  0.51506905  0.59586308     0.36240
C3112       C  0.79367570  0.50622377  0.57705860    -0.05940
C3113       C  0.79544664  0.49893020  0.53969929    -0.32910
C3114       C  0.82797171  0.50322815  0.52144070     0.36150
H3115       H  0.88293929  0.52588378  0.59309130     0.16520
O3116       O  0.82732975  0.52128619  0.63228568    -0.60400
H3117       H  0.77190966  0.48908435  0.52442057     0.16530
O3118       O  0.82842012  0.49522325  0.98544145    -0.60500
H3119       H  0.82610496  0.51832089  0.97336878     0.43530
H3120       H  0.83702343  0.49988209  0.64283436     0.43480
C3121       C  0.92296780  0.71750239  0.98485169    -0.05580
C3122       C  0.92354269  0.69401860  0.95466536    -0.33010
C3123       C  0.94486779  0.66543091  0.95362135     0.36240
C3124       C  0.96516600  0.65717636  0.98396143    -0.05940
C3125       C  0.96790697  0.68130914  0.51298332    -0.32910
C3126       C  0.94742576  0.71120026  0.51376434     0.36150
H3127       H  0.90576432  0.69509484  0.93187327     0.16520
O3128       O  0.94453193  0.64454879  0.92286690    -0.60400
H3129       H  0.98411062  0.67579872  0.53627297     0.16530
O3130       O  0.95085700  0.73324280  0.54364411    -0.60500
H3131       H  0.94462242  0.71789628  0.56440330     0.43530
H3132       H  0.92086269  0.63086713  0.92174242     0.43480
C3133       C  0.92836447  0.85721036  0.51352878    -0.05580
C3134       C  0.89260390  0.84702850  0.00574872    -0.33010
C3135       C  0.88127568  0.81125719  0.99695073     0.36240
C3136       C  0.90625736  0.78469222  0.99351943    -0.05940
C3137       C  0.94240341  0.79597984  0.50014168    -0.32910
C3138       C  0.95289314  0.83094614  0.51242483     0.36150
H3139       H  0.87350873  0.86714438  0.00506444     0.16520
O3140       O  0.84544809  0.80237010  0.99251615    -0.60400
H3141       H  0.96285296  0.77780483  0.49683649     0.16530
O3142       O  0.98805637  0.84024786  0.52074497    -0.60500
H3143       H  0.99046121  0.83659356  0.54694616     0.43530
H3144       H  0.83894114  0.81191540  0.96881655     0.43480
C3145       C  0.59820745  0.64611917  0.93812711    -0.05580
C3146       C  0.63372623  0.65502280  0.94837385    -0.33010
C3147       C  0.64657288  0.69073845  0.95592887     0.36240
C3148       C  0.62375483  0.71932818  0.95372343    -0.05940
C3149       C  0.58902152  0.70997500  0.93967605    -0.32910
C3150       C  0.57590570  0.67409395  0.93348919     0.36150
H3151       H  0.65116431  0.63385948  0.95299922     0.16520
O3152       O  0.68177783  0.69726496  0.46580385    -0.60400
H3153       H  0.57120457  0.72981069  0.93278907     0.16530
O3154       O  0.54022237  0.66636714  0.92624859    -0.60500
H3155       H  0.53477697  0.67968952  0.90430135     0.43530
H3156       H  0.68383784  0.68815792  0.49053720     0.43480
C3157       C  0.57100452  0.84889313  0.96038930    -0.05580
C3158       C  0.60807884  0.85382314  0.95945518    -0.33010
C3159       C  0.62937900  0.82585700  0.96398808     0.36240
C3160       C  0.61422184  0.79003862  0.96755409    -0.05940
C3161       C  0.57687497  0.78555930  0.97185968    -0.32910
C3162       C  0.55525973  0.81420935  0.96619522     0.36150
H3163       H  0.62123996  0.88031402  0.95576419     0.16520
O3164       O  0.66549974  0.83398567  0.96353718    -0.60400
H3165       H  0.56403956  0.76023268  0.47976032     0.16530
O3166       O  0.51909148  0.80797744  0.46693055    -0.60500
H3167       H  0.51160784  0.80137253  0.44186224     0.43530
H3168       H  0.67096220  0.84232313  0.93896580     0.43480
C3169       C  0.50897684  0.60918768  0.70081677    -0.05580
C3170       C  0.49700522  0.57241623  0.69835402    -0.33010
C3171       C  0.49369754  0.55354026  0.66486654     0.36240
C3172       C  0.50532344  0.57018255  0.63305230    -0.05940
C3173       C  0.01928115  0.60615609  0.63592498    -0.32910
C3174       C  0.02098530  0.62537699  0.66851704     0.36150
H3175       H  0.49006928  0.55771910  0.72213784     0.16520
O3176       O  0.47853361  0.51907333  0.66350430    -0.60400
H3177       H  0.02865409  0.62031478  0.61240305     0.16530
O3178       O  0.03420540  0.66064486  0.66840932    -0.60500
H3179       H  0.01616815  0.67363808  0.65538015     0.43530
H3180       H  0.49168445  0.00624078  0.68171578     0.43480
C3181       C  0.47982645  0.58665394  0.84048496    -0.05580
C3182       C  0.95726360  0.57818408  0.81061480    -0.33010
C3183       C  0.96574173  0.59271634  0.77661743     0.36240
C3184       C  0.49924294  0.61244829  0.77160940    -0.05940
C3185       C  0.52005014  0.62119745  0.80313689    -0.32910
C3186       C  0.50974849  0.61047514  0.83659831     0.36150
H3187       H  0.93365924  0.56005092  0.81343477     0.16520
O3188       O  0.94074276  0.58910601  0.74916372    -0.60400
H3189       H  0.54378438  0.63931079  0.80363738     0.16530
O3190       O  0.53104498  0.62125110  0.86580084    -0.60500
H3191       H  0.55446605  0.61182543  0.86149278     0.43530
H3192       H  0.93333788  0.56314016  0.74670588     0.43480
C3193       C  0.98178925  0.66150818  0.73404352    -0.05580
C3194       C  0.95819329  0.66187884  0.70411392    -0.33010
C3195       C  0.92830421  0.68110987  0.70460146     0.36240
C3196       C  0.91968368  0.69955433  0.73594904    -0.05940
C3197       C  0.94381126  0.70255917  0.76478062    -0.32910
C3198       C  0.97497643  0.68447245  0.76397674     0.36150
H3199       H  0.96056362  0.64553444  0.68039180     0.16520
O3200       O  0.90671162  0.68062482  0.67439133    -0.60400
H3201       H  0.93761660  0.71725926  0.78886109     0.16530
O3202       O  0.99704358  0.68717517  0.79383351    -0.60500
H3203       H  0.00215358  0.71309092  0.79943714     0.43530
H3204       H  0.89422362  0.65627081  0.67295824     0.43480
C3205       C  0.54926186  0.64782758  0.74080655    -0.05580
C3206       C  0.57513865  0.62262967  0.74525541    -0.33010
C3207       C  0.61049614  0.63326250  0.75504271     0.36240
C3208       C  0.62122432  0.66963991  0.76053567    -0.05940
C3209       C  0.59618926  0.69489119  0.75530353    -0.32910
C3210       C  0.56094075  0.68460023  0.74443753     0.36150
H3211       H  0.56743159  0.59423747  0.74205865     0.16520
O3212       O  0.63494749  0.60811855  0.75657868    -0.60400
H3213       H  0.60500855  0.72318069  0.75627928     0.16530
O3214       O  0.53943335  0.71058314  0.73420273    -0.60500
H3215       H  0.54104804  0.72895162  0.75379641     0.43530
H3216       H  0.63593251  0.60116159  0.78210917     0.43480
loop_ 
_geom_bond_atom_site_label_1 
_geom_bond_atom_site_label_2 
_geom_bond_distance 
_geom_bond_site_symmetry_2 
_ccdc_geom_bond_type 
C1          C379   1.566       .  S
C1         C1963   1.577       .  S
C1         C1978   1.567       .  S
C1         C1999   1.562       .  S
O2          Zr38   2.473       .  S
O2         C1621   1.296       .  A
O3          Zr37   2.512       .  S
O3           C14   1.305       .  A
O4          Zr10   2.519       .  S
O4           C15   1.307       .  A
O5         Zr814   2.490       .  S
O5           C16   1.302       .  A
O6          Zr40   2.420   1_455  S
O6           C16   1.290       .  A
O7         Zr441   2.380       .  S
O7           C15   1.281       .  A
O8         Zr814   2.420       .  S
O8           C14   1.289       .  A
O9          Zr10   2.373       .  S
O9           C13   1.283   1_455  A
Zr10        O809   2.490   1_545  S
Zr10        O812   2.420       .  S
Zr10         O12   2.340       .  S
Zr10         O18   2.330       .  S
Zr10        O815   2.338   1_545  S
Zr10        O824   2.350   1_445  S
O11         Zr37   2.326       .  S
O11         Zr40   2.344   1_455  S
O11        Zr814   2.338       .  S
O12       Zr1646   2.332   1_455  S
O12        Zr441   2.340       .  S
C13        O1610   1.296       .  A
C13         C367   1.461       .  S
C14         C262   1.502       .  S
C15         C331   1.480       .  S
C16         C250   1.504       .  S
H17          O18   0.965       .  S
O18        Zr841   2.330   1_545  S
O18        Zr441   2.344       .  S
H19        O1628   0.965       .  S
O20         Zr40   2.331       .  S
O20        Zr814   2.350   1_655  S
O20       Zr2450   2.352       .  S
O20        H1627   0.965       .  S
O21        Zr439   2.482   1_554  S
O21          C44   1.299       .  A
O22         Zr38   2.497       .  S
O22         C447   1.301       .  A
O23         Zr39   2.500       .  S
O23          C46   1.302       .  A
O24         Zr40   2.501   1_455  S
O24          C47   1.301       .  A
O25       Zr1648   2.490       .  S
O25          C48   1.300       .  A
O26         Zr39   2.479       .  S
O26        C2059   1.298   1_454  A
O27        Zr845   2.515   1_545  S
O27        C1658   1.306       .  A
O28         Zr41   2.505       .  S
O28          C51   1.304       .  A
O29         Zr39   2.412       .  S
O29          C50   1.289       .  A
O30       Zr1648   2.372       .  S
O30         C453   1.280       .  A
O31        Zr439   2.325   1_554  S
O31         C850   1.272       .  A
O32         Zr38   2.388       .  S
O32          C49   1.284       .  A
O33        Zr842   2.337       .  S
O33          C48   1.274       .  A
O34         Zr37   2.370       .  S
O34          C47   1.282       .  A
O35       Zr1649   2.336   1_455  S
O35          C44   1.276       .  A
O36         Zr41   2.405       .  S
O36         C849   1.286       .  A
Zr37        O423   2.482       .  S
Zr37        O433   2.325       .  S
Zr37         O55   2.330       .  S
Zr37        O822   2.330       .  S
Zr37        O445   2.338       .  S
Zr38        O837   2.336   1_545  S
Zr38       O1620   2.332       .  S
Zr38       O2432   2.352   1_545  S
Zr38        O846   2.326   1_545  S
Zr38        O455   2.331       .  S
Zr39        O409   2.380   1_554  S
Zr39        O414   2.340   1_554  S
Zr39        O420   2.344   1_554  S
Zr39        O847   2.324       .  S
Zr39       O1661   2.356   1_455  S
Zr40       O1633   2.490       .  S
Zr40       O1638   2.372       .  S
Zr40         O55   2.341   1_655  S
Zr40       O1650   2.351       .  S
Zr41        O831   2.515       .  S
Zr41       O1643   2.336       .  S
Zr41        O444   2.325   1_554  S
Zr41       O1651   2.345       .  S
Zr41       O2065   2.351   1_554  S
Zr41        O857   2.338       .  S
O42        Zr842   2.326       .  S
O42       Zr1648   2.351       .  S
O42        Zr443   2.325       .  S
O43        Zr439   2.338   1_554  S
O43        Zr843   2.324       .  S
O43       Zr1649   2.345   1_455  S
C44         C235   1.463       .  S
C45         O424   1.301   1_554  A
C45         O840   1.286   1_545  A
C45         C295   1.491       .  S
C46         O835   1.272       .  A
C46         C283   1.452       .  S
C47         C343   1.484       .  S
C48         C271   1.454       .  S
C49        O2036   1.298       .  A
C49         C310   1.482       .  S
C50        O1635   1.306   1_455  A
C50         C358   1.513       .  S
C51         O432   1.280   1_554  A
C51         C319   1.468       .  S
H52          O53   0.966       .  S
O53        Zr440   2.330   1_554  S
O53       Zr1647   2.356       .  S
O53        Zr845   2.338   1_545  S
H54         O457   0.965   1_554  S
O55       Zr2051   2.351   1_455  S
O55         H456   0.965       .  S
C56         C223   1.561       .  S
C56         C286   1.562       .  S
C56         C298   1.566       .  S
C56        C1015   1.571   1_545  S
O57         Zr93   2.499       .  S
O57          C68   1.303       .  A
O58         Zr92   2.501       .  S
O58          C69   1.304       .  A
O59         Zr65   2.495       .  S
O59          C70   1.299       .  A
O60         Zr65   2.475       .  S
O60          C71   1.297       .  A
O61         Zr95   2.335       .  S
O61          C71   1.274       .  A
O62         Zr94   2.358       .  S
O62          C70   1.277       .  A
O63         Zr65   2.415       .  S
O63          C69   1.289       .  A
O64         Zr65   2.359       .  S
O64          C68   1.278       .  A
Zr65         O66   2.326       .  S
Zr65         O67   2.336       .  S
Zr65         O75   2.355       .  S
Zr65         O73   2.345       .  S
O66         Zr92   2.345       .  S
O66         Zr95   2.348       .  S
O67         Zr93   2.346       .  S
O67         Zr94   2.323       .  S
C68         C394   1.462       .  S
C69         C130   1.508       .  S
C70         C199   1.488       .  S
C71         C226   1.443       .  S
H72          O73   0.966       .  S
O73         Zr92   2.342       .  S
O73         Zr94   2.326       .  S
H74          O75   0.966       .  S
O75         Zr93   2.330       .  S
O75         Zr95   2.326       .  S
O76         Zr92   2.530       .  S
O76          C99   1.309       .  A
O77         Zr93   2.511       .  S
O77         C100   1.305       .  A
O78         Zr94   2.490       .  S
O78         C101   1.301       .  A
O79         Zr95   2.468       .  S
O79         C102   1.295       .  A
O80         Zr95   2.503       .  S
O80         C103   1.303       .  A
O81         Zr94   2.466       .  S
O81         C104   1.296       .  A
O82         Zr96   2.497       .  S
O82         C105   1.301       .  A
O83         Zr96   2.455       .  S
O83         C106   1.294       .  A
O84         Zr94   2.329       .  S
O84         C105   1.272       .  A
O85         Zr95   2.388       .  S
O85         C106   1.284       .  A
O86         Zr92   2.429       .  S
O86         C101   1.291       .  A
O87         Zr93   2.353       .  S
O87         C104   1.279       .  A
O88         Zr93   2.412       .  S
O88         C103   1.287       .  A
O89         Zr92   2.382       .  S
O89         C102   1.284       .  A
O90         Zr96   2.376       .  S
O90          C99   1.282       .  A
O91         Zr96   2.419       .  S
O91         C100   1.289       .  A
Zr92         O98   2.337       .  S
Zr92        O110   2.348       .  S
Zr93         O97   2.339       .  S
Zr93        O108   2.346       .  S
Zr94         O98   2.321       .  S
Zr94        O108   2.335       .  S
Zr95         O97   2.328       .  S
Zr95        O110   2.337       .  S
Zr96         O97   2.353       .  S
Zr96         O98   2.339       .  S
Zr96        O110   2.344       .  S
Zr96        O108   2.310       .  S
C99         C190   1.490       .  S
C100        C142   1.513       .  S
C101        C214   1.497       .  S
C102        C151   1.462       .  S
C103        C175   1.497       .  S
C104        C118   1.446       .  S
C105        C163   1.455       .  S
C106        C382   1.466       .  S
H107        O108   0.965       .  S
H109        O110   0.965       .  S
C111        C115   1.554       .  S
C111        C334   1.577       .  S
C111        C346   1.568       .  S
C111        C529   1.581       .  S
C112        C202   1.556       .  S
C112        C238   1.559       .  S
C112        C247   1.578       .  S
C112       C1795   1.577   1_455  S
C113        C139   1.583       .  S
C113        C307   1.584       .  S
C113        C322   1.569       .  S
C113        C556   1.561       .  S
C114        C166   1.563       .  S
C114        C259   1.572       .  S
C114        C274   1.563       .  S
C114        C982   1.569       .  S
C115        C116   1.404       .  A
C115        C120   1.434       .  A
C116        C117   1.391       .  A
C116        H121   1.078       .  S
C117        C118   1.408       .  A
C117        O122   1.372       .  S
C118        C119   1.385       .  A
C119        C120   1.392       .  A
C119        H123   1.085       .  S
C120        O124   1.372       .  S
O122        H126   0.991       .  S
O124        H125   0.992       .  S
C127        C513   1.581       .  S
C127        C128   1.425   1_556  A
C127        C132   1.419   1_556  A
C128        C129   1.411       .  A
C128        H535   1.075   1_554  S
C129        C130   1.407       .  A
C129        O134   1.371       .  S
C130        C131   1.410       .  A
C131        C132   1.402       .  A
C131        H135   1.083       .  S
C132        O136   1.372       .  S
H133        C530   1.075       .  S
O134        H138   0.992       .  S
O136        H137   0.992       .  S
C139        C140   1.413       .  A
C139        C144   1.429       .  A
C140        C141   1.396       .  A
C140        H145   1.084       .  S
C141        C142   1.417       .  A
C141        O146   1.372       .  S
C142        C143   1.409       .  A
C143        C144   1.425       .  A
C143        H147   1.083       .  S
C144        O148   1.373       .  S
O146        H150   0.992       .  S
O148        H149   0.992       .  S
C151        C152   1.403       .  A
C151        C156   1.393       .  A
C152        C153   1.421       .  A
C152        H157   1.083       .  S
C153        C154   1.427       .  A
C153        O158   1.376   1_554  S
C154        C515   1.561   1_554  S
C154        C155   1.419       .  A
C155        C156   1.374       .  A
C155        H159   1.078       .  S
C156        O160   1.372       .  S
O158        H162   0.992       .  S
O160        H161   0.992       .  S
C163        C164   1.397       .  A
C163        C168   1.399       .  A
C164        C165   1.394       .  A
C164        H169   1.086       .  S
C165        C166   1.430       .  A
C165        O170   1.371       .  S
C166        C167   1.423       .  A
C167        C168   1.401       .  A
C167        H171   1.079       .  S
C168        O172   1.371       .  S
O170        H174   0.992       .  S
O172        H173   0.992       .  S
C175        C176   1.406       .  A
C175        C180   1.410       .  A
C176        C177   1.417       .  A
C176        H181   1.083       .  S
C177        C178   1.426       .  A
C177        O182   1.371       .  S
C178        C918   1.569   1_545  S
C178        C179   1.412       .  A
C179        C180   1.400       .  A
C179        H183   1.082       .  S
C180        O184   1.372       .  S
O182        H186   0.992       .  S
O184        H185   0.992       .  S
C187       C1720   1.577       .  S
C187        C188   1.419       .  A
C187        C192   1.428       .  A
C188        C189   1.393       .  A
C188        H193   1.079       .  S
C189        C190   1.404       .  A
C189        O194   1.372       .  S
C190        C191   1.405       .  A
C191        C192   1.423       .  A
C191        H195   1.078       .  S
C192        O196   1.375       .  S
O194        H198   0.992       .  S
O196        H197   0.992       .  S
C199        C200   1.408       .  A
C199        C204   1.410       .  A
C200        C201   1.427       .  A
C200        H205   1.078       .  S
C201        C202   1.419       .  A
C201        O206   1.374       .  S
C202        C203   1.409       .  A
C203        C204   1.372       .  A
C203        H207   1.082       .  S
C204        O208   1.376       .  S
O206        H210   0.992       .  S
O208        H209   0.993       .  S
C211        C860   1.571       .  S
C211        C212   1.419       .  A
C211        C216   1.422       .  A
C212        C213   1.416       .  A
C212        H217   1.080       .  S
C213        C214   1.410       .  A
C213        O218   1.371       .  S
C214        C215   1.401       .  A
C215        C216   1.402       .  A
C215        H219   1.084       .  S
C216        O220   1.372       .  S
O218        H222   0.992       .  S
O220        H221   0.992       .  S
C223        C224   1.420       .  A
C223        C228   1.435       .  A
C224        C225   1.398       .  A
C224        H229   1.076       .  S
C225        C226   1.400       .  A
C225        O230   1.372       .  S
C226        C227   1.390       .  A
C227        C228   1.393       .  A
C227        H231   1.086       .  S
C228        O232   1.376       .  S
O230        H234   0.991       .  S
O232        H233   0.993       .  S
C235        C236   1.408       .  A
C235        C240   1.389       .  A
C236        C237   1.390       .  A
C236        H241   1.081       .  S
C237        C238   1.407       .  A
C237        O242   1.372   1_455  S
C238        C239   1.433       .  A
C239        C240   1.393       .  A
C239        H243   1.080       .  S
C240        O244   1.372       .  S
O242        H246   0.989   1_655  S
O244        H245   0.992       .  S
C247        C248   1.420       .  A
C247        C252   1.417       .  A
C248        C249   1.411       .  A
C248        H253   1.080       .  S
C249        C250   1.410       .  A
C249        O254   1.371       .  S
C250        C251   1.409       .  A
C251        C252   1.401       .  A
C251        H255   1.083       .  S
C252        O256   1.374       .  S
O254        H258   0.992       .  S
O256       H1865   0.992   1_455  S
H257       O1864   0.992       .  S
C259        C260   1.413       .  A
C259        C264   1.427       .  A
C260        C261   1.403       .  A
C260       H1069   1.082       .  S
C261        C262   1.410       .  A
C261        O266   1.373       .  S
C262        C263   1.407       .  A
C263        C264   1.420       .  A
C263        H267   1.083       .  S
C264        O268   1.371       .  S
H265       C1064   1.082       .  S
O266       H1074   0.992       .  S
O268        H269   0.992       .  S
H270       O1070   0.992       .  S
C271        C272   1.395       .  A
C271        C276   1.400       .  A
C272       C1077   1.391       .  A
C272       H1081   1.086       .  S
C273       C1076   1.391   1_545  A
C273       C1078   1.432   1_545  A
C273        O278   1.371       .  S
C274        C275   1.423       .  A
C274       C1077   1.432       .  A
C275        C276   1.403       .  A
C275        H279   1.080       .  S
C276        O280   1.371       .  S
H277       C1076   1.086       .  S
O278        H282   0.992       .  S
O280        H281   0.992       .  S
C283        C284   1.394       .  A
C283        C288   1.403       .  A
C284        C285   1.393   1_545  A
C284        H289   1.085       .  S
C285        C286   1.432   1_565  A
C285        O290   1.371       .  S
C286        C287   1.420       .  A
C287        C288   1.402       .  A
C287        H291   1.075       .  S
C288        O694   1.372       .  S
O290        H294   0.992       .  S
O292        C690   1.372       .  S
O292        H293   0.991       .  S
C295        C296   1.401       .  A
C295        C300   1.408       .  A
C296        C297   1.399       .  A
C296        H301   1.084       .  S
C297        C298   1.421       .  A
C297        O302   1.372       .  S
C298        C299   1.418   1_545  A
C299        C300   1.414   1_565  A
C299        H303   1.080       .  S
C300        O706   1.370   1_544  S
O302        H306   0.992   1_545  S
O304        C702   1.370   1_565  S
O304        H305   0.992   1_565  S
C307        C308   1.417       .  A
C307        C714   1.439       .  A
C308        C309   1.391       .  A
C308        H313   1.075       .  S
C309        C310   1.405       .  A
C309        O314   1.375       .  S
C310        C713   1.394       .  A
C311        C312   1.411       .  A
C311        C712   1.394   1_554  A
C311        H315   1.084       .  S
C312        C709   1.439   1_554  A
C312        O316   1.372       .  S
O314        H318   0.992       .  S
O316        H317   0.993       .  S
C319        C324   1.405       .  A
C319        C722   1.395       .  A
C320        C321   1.404       .  A
C320        C721   1.395       .  A
C320        H325   1.084       .  S
C321        C322   1.430       .  A
C321        O326   1.371       .  S
C322        C725   1.410       .  A
C323        C324   1.403       .  A
C323        C724   1.410   1_554  A
C323        H327   1.077   1_554  S
C324        O328   1.371       .  S
O326        H330   0.992       .  S
O328        H329   0.992       .  S
C331        C332   1.398       .  A
C331        C336   1.407       .  A
C332        C333   1.407       .  A
C332        H337   1.084       .  S
C333        C334   1.430       .  A
C333        O740   1.372       .  S
C334        C335   1.416       .  A
C335        C336   1.408       .  A
C335        H339   1.072       .  S
C336        O340   1.374       .  S
O338        C735   1.372       .  S
O338        H342   0.992       .  S
O340        H341   0.992       .  S
C343        C344   1.397       .  A
C343        C348   1.406       .  A
C344        C345   1.381       .  A
C344        H349   1.085       .  S
C345        C346   1.425       .  A
C345        O350   1.372       .  S
C346        C347   1.418       .  A
C347        C348   1.415       .  A
C347        H753   1.078       .  S
C348        O754   1.366       .  S
O350        H354   0.993       .  S
H351        C749   1.078       .  S
O352        C750   1.366       .  S
O352        H353   0.992       .  S
C355       C1609   1.577       .  S
C355        C356   1.415   1_455  A
C355       C1968   1.423       .  A
C356        C357   1.422       .  A
C356        H361   1.077       .  S
C357        C358   1.410   1_655  A
C357        O362   1.369       .  S
C358       C1967   1.408       .  A
C359        C360   1.398       .  A
C359       C1966   1.408       .  A
C359        H363   1.083       .  S
C360       C1963   1.423       .  A
C360        O364   1.374       .  S
O362       H1170   0.987       .  S
O364        H365   0.992       .  S
H366       O1166   0.987       .  S
C367        C372   1.393   1_655  A
C367       C1976   1.403       .  A
C368        C369   1.420       .  A
C368       C1975   1.403       .  A
C368        H373   1.083       .  S
C369       C1978   1.429       .  A
C369        O374   1.374       .  S
C370       C1609   1.567   1_655  S
C370        C371   1.418   1_655  A
C370       C1977   1.429       .  A
C371        C372   1.371       .  A
C371        H375   1.078       .  S
C372        O376   1.374       .  S
O374        H378   0.992       .  S
O376        H377   0.992       .  S
C379        C380   1.413       .  A
C379        C384   1.436       .  A
C380        C381   1.386       .  A
C380        H385   1.076       .  S
C381        C382   1.404       .  A
C381        O386   1.375       .  S
C382        C383   1.391       .  A
C383        C384   1.404       .  A
C383        H387   1.084       .  S
C384        O388   1.373       .  S
O386        H390   0.992       .  S
O388        H389   0.992       .  S
C391       C1609   1.562       .  S
C391        C392   1.421       .  A
C391        C396   1.415       .  A
C392        C393   1.400       .  A
C392        H397   1.084       .  S
C393        C394   1.400       .  A
C393        O398   1.371       .  S
C394        C395   1.403       .  A
C395        C396   1.403       .  A
C395        H399   1.085       .  S
C396        O400   1.371       .  S
O398        H402   0.992       .  S
O400        H401   0.992       .  S
C403       C2365   1.577       .  S
C403       C2380   1.567       .  S
C403        C781   1.566       .  S
C403       C2401   1.562       .  S
O404       Zr440   2.473       .  S
O404       C2023   1.296       .  A
O405       Zr439   2.512       .  S
O405        C416   1.305       .  A
O406       Zr412   2.519       .  S
O406        C417   1.307       .  A
O407      Zr1216   2.490       .  S
O407        C418   1.302       .  A
O408       Zr442   2.420   1_455  S
O408        C418   1.290       .  A
O409        C417   1.281       .  A
O410      Zr1216   2.420       .  S
O410        C416   1.289       .  A
O411       Zr412   2.373       .  S
O411        C415   1.283   1_455  A
Zr412      O1211   2.490   1_545  S
Zr412      O1214   2.420       .  S
Zr412      O1217   2.338   1_545  S
Zr412       O414   2.340       .  S
Zr412      O1226   2.350   1_445  S
Zr412       O420   2.330       .  S
O413      Zr1216   2.338       .  S
O413       Zr439   2.326       .  S
O413       Zr442   2.344   1_455  S
O414      Zr2048   2.332   1_455  S
C415       O2012   1.296       .  A
C415        C769   1.461       .  S
C416        C664   1.502       .  S
C417        C733   1.480       .  S
C418        C652   1.504       .  S
H419        O420   0.965       .  S
O420      Zr1243   2.330   1_545  S
H421       O2030   0.965       .  S
O422      Zr1216   2.350   1_655  S
O422      Zr2852   2.352       .  S
O422       Zr442   2.331       .  S
O422       H2029   0.965       .  S
O423        C446   1.299       .  A
O424       Zr440   2.497       .  S
O425       Zr441   2.500       .  S
O425        C448   1.302       .  A
O426       Zr442   2.501   1_455  S
O426        C449   1.301       .  A
O427      Zr2050   2.490       .  S
O427        C450   1.300       .  A
O428       Zr441   2.479       .  S
O428       C1657   1.298   1_455  A
O429      Zr1247   2.515   1_545  S
O429       C2060   1.306       .  A
O430       Zr443   2.505       .  S
O430        C453   1.304       .  A
O431       Zr441   2.412       .  S
O431        C452   1.289       .  A
O432      Zr2050   2.372       .  S
O433       C1252   1.272       .  A
O434       Zr440   2.388       .  S
O434        C451   1.284       .  A
O435      Zr1244   2.337       .  S
O435        C450   1.274       .  A
O436       Zr439   2.370       .  S
O436        C449   1.282       .  A
O437      Zr2051   2.336   1_455  S
O437        C446   1.276       .  A
O438       Zr443   2.405       .  S
O438       C1251   1.286       .  A
Zr439      O1224   2.330       .  S
Zr439       O457   2.330       .  S
Zr440      O1239   2.336   1_545  S
Zr440      O2022   2.332       .  S
Zr440      O2834   2.352   1_545  S
Zr440      O1248   2.326   1_545  S
Zr441      O1249   2.324       .  S
Zr441      O2063   2.356   1_455  S
Zr442      O2035   2.490       .  S
Zr442      O2040   2.372       .  S
Zr442      O2052   2.351       .  S
Zr442       O457   2.341   1_655  S
Zr443      O1233   2.515       .  S
Zr443      O2045   2.336       .  S
Zr443      O2053   2.345       .  S
Zr443      O1663   2.351       .  S
Zr443      O1259   2.338       .  S
O444      Zr1244   2.326       .  S
O444      Zr2050   2.351       .  S
O445      Zr1245   2.324       .  S
O445      Zr2051   2.345   1_455  S
C446        C637   1.463       .  S
C447       O1242   1.286   1_545  A
C447        C697   1.491       .  S
C448       O1237   1.272       .  A
C448        C685   1.452       .  S
C449        C745   1.484       .  S
C450        C673   1.454       .  S
C451       O1634   1.298   1_556  A
C451        C712   1.482       .  S
C452       O2037   1.306   1_455  A
C452        C760   1.513       .  S
C453        C721   1.468       .  S
H454        O455   0.966       .  S
O455      Zr2049   2.356       .  S
O455      Zr1247   2.338   1_545  S
O457      Zr1649   2.351   1_456  S
C458       C1417   1.571   1_545  S
C458        C625   1.561       .  S
C458        C688   1.562       .  S
C458        C700   1.566       .  S
O459       Zr495   2.499       .  S
O459        C470   1.303       .  A
O460       Zr494   2.501       .  S
O460        C471   1.304       .  A
O461       Zr467   2.495       .  S
O461        C472   1.299       .  A
O462       Zr467   2.475       .  S
O462        C473   1.297       .  A
O463       Zr497   2.336       .  S
O463        C473   1.274       .  A
O464       Zr496   2.358       .  S
O464        C472   1.277       .  A
O465       Zr467   2.415       .  S
O465        C471   1.289       .  A
O466       Zr467   2.359       .  S
O466        C470   1.278       .  A
Zr467       O468   2.326       .  S
Zr467       O469   2.336       .  S
Zr467       O477   2.355       .  S
Zr467       O475   2.345       .  S
O468       Zr494   2.345       .  S
O468       Zr497   2.348       .  S
O469       Zr495   2.346       .  S
O469       Zr496   2.323       .  S
C470        C796   1.462       .  S
C471        C532   1.508       .  S
C472        C601   1.488       .  S
C473        C628   1.444       .  S
H474        O475   0.966       .  S
O475       Zr494   2.342       .  S
O475       Zr496   2.326       .  S
H476        O477   0.966       .  S
O477       Zr495   2.330       .  S
O477       Zr497   2.326       .  S
O478       Zr494   2.530       .  S
O478        C501   1.309       .  A
O479       Zr495   2.511       .  S
O479        C502   1.305       .  A
O480       Zr496   2.490       .  S
O480        C503   1.301       .  A
O481       Zr497   2.468       .  S
O481        C504   1.295       .  A
O482       Zr497   2.503       .  S
O482        C505   1.303       .  A
O483       Zr496   2.466       .  S
O483        C506   1.296       .  A
O484       Zr498   2.497       .  S
O484        C507   1.301       .  A
O485       Zr498   2.455       .  S
O485        C508   1.294       .  A
O486       Zr496   2.329       .  S
O486        C507   1.272       .  A
O487       Zr497   2.388       .  S
O487        C508   1.284       .  A
O488       Zr494   2.429       .  S
O488        C503   1.291       .  A
O489       Zr495   2.353       .  S
O489        C506   1.279       .  A
O490       Zr495   2.412       .  S
O490        C505   1.287       .  A
O491       Zr494   2.382       .  S
O491        C504   1.284       .  A
O492       Zr498   2.376       .  S
O492        C501   1.282       .  A
O493       Zr498   2.419       .  S
O493        C502   1.289       .  A
Zr494       O500   2.337       .  S
Zr494       O512   2.348       .  S
Zr495       O499   2.339       .  S
Zr495       O510   2.346       .  S
Zr496       O500   2.321       .  S
Zr496       O510   2.335       .  S
Zr497       O499   2.328       .  S
Zr497       O512   2.337       .  S
Zr498       O499   2.353       .  S
Zr498       O500   2.339       .  S
Zr498       O512   2.344       .  S
Zr498       O510   2.310       .  S
C501        C592   1.490       .  S
C502        C544   1.513       .  S
C503        C616   1.497       .  S
C504        C553   1.462       .  S
C505        C577   1.497       .  S
C506        C520   1.446       .  S
C507        C565   1.455       .  S
C508        C784   1.466       .  S
H509        O510   0.965       .  S
H511        O512   0.965       .  S
C513        C517   1.554       .  S
C513        C736   1.577       .  S
C513        C748   1.568       .  S
C514       C2197   1.577   1_455  S
C514        C604   1.556       .  S
C514        C640   1.559       .  S
C514        C649   1.578       .  S
C515        C541   1.583       .  S
C515        C709   1.584       .  S
C515        C724   1.569       .  S
C516        C568   1.563       .  S
C516       C1384   1.569       .  S
C516        C661   1.572       .  S
C516        C676   1.563       .  S
C517        C518   1.404       .  A
C517        C522   1.434       .  A
C518        C519   1.391       .  A
C518        H523   1.078       .  S
C519        C520   1.408       .  A
C519        O524   1.372       .  S
C520        C521   1.385       .  A
C521        C522   1.392       .  A
C521        H525   1.085       .  S
C522        O526   1.372       .  S
O524        H528   0.991       .  S
O526        H527   0.992       .  S
C529        C530   1.425       .  A
C529        C534   1.419       .  A
C530        C531   1.411       .  A
C531        C532   1.407       .  A
C531        O536   1.371       .  S
C532        C533   1.410       .  A
C533        C534   1.402       .  A
C533        H537   1.083       .  S
C534        O538   1.372       .  S
O536        H540   0.992       .  S
O538        H539   0.992       .  S
C541        C542   1.413       .  A
C541        C546   1.429       .  A
C542        C543   1.396       .  A
C542        H547   1.084       .  S
C543        C544   1.417       .  A
C543        O548   1.372       .  S
C544        C545   1.409       .  A
C545        C546   1.425       .  A
C545        H549   1.083       .  S
C546        O550   1.373       .  S
O548        H552   0.992       .  S
O550        H551   0.992       .  S
C553        C554   1.403       .  A
C553        C558   1.393       .  A
C554        C555   1.421       .  A
C554        H559   1.083       .  S
C555        C556   1.427       .  A
C555        O560   1.376       .  S
C556        C557   1.419       .  A
C557        C558   1.374       .  A
C557        H561   1.078       .  S
C558        O562   1.372       .  S
O560        H564   0.992       .  S
O562        H563   0.992       .  S
C565        C566   1.397       .  A
C565        C570   1.399       .  A
C566        C567   1.394       .  A
C566        H571   1.086       .  S
C567        C568   1.430       .  A
C567        O572   1.371       .  S
C568        C569   1.423       .  A
C569        C570   1.401       .  A
C569        H573   1.079       .  S
C570        O574   1.371       .  S
O572        H576   0.992       .  S
O574        H575   0.992       .  S
C577        C578   1.406       .  A
C577        C582   1.410       .  A
C578        C579   1.417       .  A
C578        H583   1.083       .  S
C579        C580   1.426       .  A
C579        O584   1.371       .  S
C580       C1320   1.569   1_545  S
C580        C581   1.412       .  A
C581        C582   1.400       .  A
C581        H585   1.082       .  S
C582        O586   1.372       .  S
O584        H588   0.992       .  S
O586        H587   0.992       .  S
C589       C2122   1.577       .  S
C589        C590   1.419       .  A
C589        C594   1.428       .  A
C590        C591   1.393       .  A
C590        H595   1.079       .  S
C591        C592   1.404       .  A
C591        O596   1.372       .  S
C592        C593   1.405       .  A
C593        C594   1.423       .  A
C593        H597   1.078       .  S
C594        O598   1.375       .  S
O596        H600   0.992       .  S
O598        H599   0.992       .  S
C601        C602   1.408       .  A
C601        C606   1.410       .  A
C602        C603   1.427       .  A
C602        H607   1.078       .  S
C603        C604   1.419       .  A
C603        O608   1.374       .  S
C604        C605   1.409       .  A
C605        C606   1.372       .  A
C605        H609   1.082       .  S
C606        O610   1.376       .  S
O608        H612   0.992       .  S
O610        H611   0.993       .  S
C613       C1262   1.571       .  S
C613        C614   1.419       .  A
C613        C618   1.422       .  A
C614        C615   1.416       .  A
C614        H619   1.080       .  S
C615        C616   1.410       .  A
C615        O620   1.371       .  S
C616        C617   1.401       .  A
C617        C618   1.402       .  A
C617        H621   1.084       .  S
C618        O622   1.372       .  S
O620        H624   0.992       .  S
O622        H623   0.992       .  S
C625        C626   1.420       .  A
C625        C630   1.435       .  A
C626        C627   1.398       .  A
C626        H631   1.076       .  S
C627        C628   1.400       .  A
C627        O632   1.372       .  S
C628        C629   1.390       .  A
C629        C630   1.393       .  A
C629        H633   1.086       .  S
C630        O634   1.376       .  S
O632        H636   0.991       .  S
O634        H635   0.993       .  S
C637        C638   1.408       .  A
C637        C642   1.389       .  A
C638        C639   1.389       .  A
C638        H643   1.081       .  S
C639        C640   1.407       .  A
C639        O644   1.372   1_455  S
C640        C641   1.433       .  A
C641        C642   1.393       .  A
C641        H645   1.080       .  S
C642        O646   1.372       .  S
O644        H648   0.989   1_655  S
O646        H647   0.992       .  S
C649        C650   1.420       .  A
C649        C654   1.417       .  A
C650        C651   1.411       .  A
C650        H655   1.080       .  S
C651        C652   1.410       .  A
C651        O656   1.371       .  S
C652        C653   1.409       .  A
C653        C654   1.401       .  A
C653        H657   1.083       .  S
C654        O658   1.374       .  S
O656        H660   0.992       .  S
O658       H2267   0.992   1_455  S
H659       O2266   0.992       .  S
C661        C662   1.413       .  A
C661        C666   1.427       .  A
C662        C663   1.403       .  A
C662       H1471   1.082       .  S
C663        C664   1.410       .  A
C663        O668   1.373       .  S
C664        C665   1.407       .  A
C665        C666   1.420       .  A
C665        H669   1.083       .  S
C666        O670   1.371       .  S
H667       C1466   1.082       .  S
O668       H1476   0.992       .  S
O670        H671   0.992       .  S
H672       O1472   0.992       .  S
C673        C674   1.395       .  A
C673        C678   1.400       .  A
C674       C1479   1.391       .  A
C674       H1483   1.086       .  S
C675       C1478   1.391   1_545  A
C675       C1480   1.432   1_545  A
C675        O680   1.371       .  S
C676       C1479   1.432       .  A
C676        C677   1.423       .  A
C677        C678   1.403       .  A
C677        H681   1.080       .  S
C678        O682   1.371       .  S
H679       C1478   1.086       .  S
O680        H684   0.992       .  S
O682        H683   0.992       .  S
C685        C686   1.394       .  A
C685        C690   1.403       .  A
C686        C687   1.393   1_545  A
C686        H691   1.085       .  S
C687        C688   1.432   1_565  A
C687        O692   1.371       .  S
C688        C689   1.420       .  A
C689        C690   1.402       .  A
C689        H693   1.075       .  S
O692        H696   0.992       .  S
O694        H695   0.991       .  S
C697        C698   1.401       .  A
C697        C702   1.409       .  A
C698        C699   1.399       .  A
C698        H703   1.084       .  S
C699        C700   1.421       .  A
C699        O704   1.372       .  S
C700        C701   1.418   1_545  A
C701        C702   1.414   1_565  A
C701        H705   1.080       .  S
O704        H708   0.992   1_545  S
O706        H707   0.992   1_565  S
C709        C710   1.417       .  A
C710        C711   1.391       .  A
C710        H715   1.075       .  S
C711        C712   1.405       .  A
C711        O716   1.375       .  S
C713        C714   1.411       .  A
C713        H717   1.084       .  S
C714        O718   1.372       .  S
O716        H720   0.992       .  S
O718        H719   0.993       .  S
C721        C726   1.404       .  A
C722        C723   1.404   1_554  A
C722        H727   1.084       .  S
C723        C724   1.430       .  A
C723        O728   1.371       .  S
C725        C726   1.403       .  A
C725        H729   1.077       .  S
C726        O730   1.371       .  S
O728        H732   0.992       .  S
O730        H731   0.992       .  S
C733        C734   1.398       .  A
C733        C738   1.407       .  A
C734        C735   1.407       .  A
C734        H739   1.084       .  S
C735        C736   1.430       .  A
C736        C737   1.416       .  A
C737        C738   1.408       .  A
C737        H741   1.072       .  S
C738        O742   1.374       .  S
O740        H744   0.992       .  S
O742        H743   0.992       .  S
C745        C746   1.397       .  A
C745        C750   1.406       .  A
C746        C747   1.381       .  A
C746        H751   1.085       .  S
C747        C748   1.425       .  A
C747        O752   1.372       .  S
C748        C749   1.418       .  A
C749        C750   1.415       .  A
O752        H756   0.993       .  S
O754        H755   0.992       .  S
C757       C2011   1.577       .  S
C757        C758   1.415   1_455  A
C757       C2370   1.423       .  A
C758        C759   1.422       .  A
C758        H763   1.077       .  S
C759        C760   1.410   1_655  A
C759        O764   1.369       .  S
C760       C2369   1.408       .  A
C761       C2368   1.408       .  A
C761        C762   1.398       .  A
C761        H765   1.083       .  S
C762       C2365   1.423       .  A
C762        O766   1.374       .  S
O764       H1572   0.987       .  S
O766        H767   0.992       .  S
H768       O1568   0.987       .  S
C769       C2378   1.403       .  A
C769        C774   1.392   1_655  A
C770       C2377   1.403       .  A
C770        C771   1.420       .  A
C770        H775   1.083       .  S
C771       C2380   1.429       .  A
C771        O776   1.374       .  S
C772       C2011   1.567   1_655  S
C772       C2379   1.429       .  A
C772        C773   1.418   1_655  A
C773        C774   1.371       .  A
C773        H777   1.078       .  S
C774        O778   1.374       .  S
O776        H780   0.992       .  S
O778        H779   0.992       .  S
C781        C782   1.413       .  A
C781        C786   1.436       .  A
C782        C783   1.386       .  A
C782        H787   1.076       .  S
C783        C784   1.404       .  A
C783        O788   1.375       .  S
C784        C785   1.391       .  A
C785        C786   1.404       .  A
C785        H789   1.084       .  S
C786        O790   1.373       .  S
O788        H792   0.992       .  S
O790        H791   0.992       .  S
C793       C2011   1.562       .  S
C793        C794   1.421       .  A
C793        C798   1.415       .  A
C794        C795   1.400       .  A
C794        H799   1.084       .  S
C795        C796   1.400       .  A
C795        O800   1.371       .  S
C796        C797   1.403       .  A
C797        C798   1.403       .  A
C797        H801   1.085       .  S
C798        O802   1.371       .  S
O800        H804   0.992       .  S
O802        H803   0.992       .  S
C805       C2767   1.577       .  S
C805       C2782   1.567       .  S
C805       C1183   1.566       .  S
C805       C2803   1.562       .  S
O806       Zr842   2.473       .  S
O806       C2425   1.296       .  A
O807       Zr841   2.512       .  S
O807        C818   1.305       .  A
O808       Zr814   2.519       .  S
O808        C819   1.307       .  A
O809        C820   1.302       .  A
O810       Zr844   2.420   1_455  S
O810        C820   1.290       .  A
O811      Zr1245   2.380       .  S
O811        C819   1.281       .  A
O812        C818   1.289   1_545  A
O813       Zr814   2.374       .  S
O813        C817   1.283   1_455  A
Zr814       O816   2.340       .  S
Zr814       O822   2.330       .  S
O815       Zr841   2.326       .  S
O815       Zr844   2.344   1_455  S
O816      Zr2450   2.332   1_455  S
O816      Zr1245   2.340       .  S
C817       O2414   1.296       .  A
C817       C1171   1.461       .  S
C818       C1066   1.502       .  S
C819       C1135   1.480       .  S
C820       C1054   1.504       .  S
H821        O822   0.965       .  S
O822      Zr1245   2.344       .  S
H823       O2432   0.965       .  S
O824      Zr1646   2.352   1_565  S
O824       Zr844   2.331       .  S
O824       H2431   0.965       .  S
O825      Zr1243   2.482   1_554  S
O825        C848   1.299       .  A
O826       Zr842   2.496       .  S
O826       C1251   1.301       .  A
O827       Zr843   2.500       .  S
O827        C850   1.302       .  A
O828       Zr844   2.501   1_455  S
O828        C851   1.301       .  A
O829      Zr2452   2.490       .  S
O829        C852   1.300       .  A
O830       Zr843   2.479       .  S
O830       C2863   1.298   1_454  A
O831       C2462   1.306       .  A
O832       Zr845   2.505       .  S
O832        C855   1.304       .  A
O833       Zr843   2.412       .  S
O833        C854   1.289       .  A
O834      Zr2452   2.372       .  S
O834       C1257   1.280       .  A
O835      Zr1243   2.325   1_544  S
O836       Zr842   2.388       .  S
O836        C853   1.284       .  A
O837        C852   1.274       .  A
O838       Zr841   2.370       .  S
O838        C851   1.282       .  A
O839      Zr2453   2.336   1_455  S
O839        C848   1.276       .  A
O840       Zr845   2.405       .  S
Zr841      O1227   2.482       .  S
Zr841      O1237   2.325   1_565  S
Zr841      O1249   2.338   1_565  S
Zr841       O859   2.330       .  S
Zr842      O2424   2.332       .  S
Zr842      O1628   2.352       .  S
Zr842      O1259   2.331       .  S
Zr843      O1213   2.380   1_554  S
Zr843      O1218   2.340   1_554  S
Zr843      O1224   2.344   1_554  S
Zr843      O2465   2.356   1_455  S
Zr844      O2437   2.490       .  S
Zr844      O2442   2.372       .  S
Zr844      O2454   2.351       .  S
Zr844       O859   2.341   1_655  S
Zr845      O2447   2.336       .  S
Zr845      O1248   2.325   1_554  S
Zr845      O2455   2.345   1_565  S
Zr845      O2869   2.351   1_554  S
O846      Zr2452   2.351       .  S
O846      Zr1247   2.325       .  S
O847      Zr1243   2.338   1_544  S
O847      Zr2453   2.345   1_445  S
C848       C1039   1.463       .  S
C849       O1228   1.301   1_554  A
C849       C1099   1.491       .  S
C850       C1087   1.452       .  S
C851       C1147   1.484       .  S
C852       C1075   1.454       .  S
C853       O2840   1.298       .  A
C853       C1114   1.482       .  S
C854       O2439   1.306   1_455  A
C854       C1162   1.513       .  S
C855       O1236   1.280   1_554  A
C855       C1123   1.468       .  S
H856        O857   0.966       .  S
O857      Zr1244   2.331   1_554  S
O857      Zr2451   2.356       .  S
H858       O1261   0.965   1_554  S
O859      Zr2855   2.351   1_455  S
O859       H1260   0.965       .  S
C860       C1027   1.561       .  S
C860       C1090   1.562       .  S
C860       C1102   1.566       .  S
O861       Zr897   2.499       .  S
O861        C872   1.303       .  A
O862       Zr896   2.501       .  S
O862        C873   1.304       .  A
O863       Zr869   2.495       .  S
O863        C874   1.299       .  A
O864       Zr869   2.475       .  S
O864        C875   1.297       .  A
O865       Zr899   2.335       .  S
O865        C875   1.274       .  A
O866       Zr898   2.358       .  S
O866        C874   1.277       .  A
O867       Zr869   2.415       .  S
O867        C873   1.289       .  A
O868       Zr869   2.359       .  S
O868        C872   1.278       .  A
Zr869       O870   2.326       .  S
Zr869       O871   2.336       .  S
Zr869       O879   2.355       .  S
Zr869       O877   2.345       .  S
O870       Zr896   2.345       .  S
O870       Zr899   2.348       .  S
O871       Zr897   2.346       .  S
O871       Zr898   2.323       .  S
C872       C1198   1.462       .  S
C873        C934   1.508       .  S
C874       C1003   1.488       .  S
C875       C1030   1.444       .  S
H876        O877   0.966       .  S
O877       Zr896   2.342       .  S
O877       Zr898   2.326       .  S
H878        O879   0.966       .  S
O879       Zr897   2.330       .  S
O879       Zr899   2.326       .  S
O880       Zr896   2.530       .  S
O880        C903   1.309       .  A
O881       Zr897   2.511       .  S
O881        C904   1.305       .  A
O882       Zr898   2.490       .  S
O882        C905   1.301       .  A
O883       Zr899   2.468       .  S
O883        C906   1.295       .  A
O884       Zr899   2.502       .  S
O884        C907   1.303       .  A
O885       Zr898   2.466       .  S
O885        C908   1.296       .  A
O886       Zr900   2.497       .  S
O886        C909   1.301       .  A
O887       Zr900   2.455       .  S
O887        C910   1.294       .  A
O888       Zr898   2.329       .  S
O888        C909   1.272       .  A
O889       Zr899   2.388       .  S
O889        C910   1.284       .  A
O890       Zr896   2.429       .  S
O890        C905   1.291       .  A
O891       Zr897   2.353       .  S
O891        C908   1.279       .  A
O892       Zr897   2.412       .  S
O892        C907   1.287       .  A
O893       Zr896   2.382       .  S
O893        C906   1.284       .  A
O894       Zr900   2.376       .  S
O894        C903   1.282       .  A
O895       Zr900   2.419       .  S
O895        C904   1.289       .  A
Zr896       O902   2.337       .  S
Zr896       O914   2.348       .  S
Zr897       O901   2.339       .  S
Zr897       O912   2.346       .  S
Zr898       O902   2.321       .  S
Zr898       O912   2.335       .  S
Zr899       O901   2.328       .  S
Zr899       O914   2.337       .  S
Zr900       O901   2.353       .  S
Zr900       O902   2.339       .  S
Zr900       O914   2.344       .  S
Zr900       O912   2.310       .  S
C903        C994   1.490       .  S
C904        C946   1.513       .  S
C905       C1018   1.497       .  S
C906        C955   1.462       .  S
C907        C979   1.496       .  S
C908        C922   1.446       .  S
C909        C967   1.455       .  S
C910       C1186   1.466       .  S
H911        O912   0.965       .  S
H913        O914   0.965       .  S
C915        C919   1.554       .  S
C915       C1333   1.581       .  S
C915       C1138   1.577       .  S
C915       C1150   1.568       .  S
C916       C2599   1.577   1_455  S
C916       C1006   1.556       .  S
C916       C1042   1.559       .  S
C916       C1051   1.578       .  S
C917        C943   1.583       .  S
C917       C1360   1.561       .  S
C917       C1111   1.584       .  S
C917       C1126   1.569       .  S
C918        C970   1.564       .  S
C918       C1063   1.572       .  S
C918       C1078   1.563       .  S
C919        C920   1.404       .  A
C919        C924   1.434       .  A
C920        C921   1.391       .  A
C920        H925   1.078       .  S
C921        C922   1.408       .  A
C921        O926   1.372       .  S
C922        C923   1.385       .  A
C923        C924   1.392       .  A
C923        H927   1.085       .  S
C924        O928   1.372       .  S
O926        H930   0.991       .  S
O928        H929   0.992       .  S
C931       C1317   1.581       .  S
C931        C932   1.425   1_556  A
C931        C936   1.419   1_556  A
C932        C933   1.411       .  A
C932       H1339   1.075   1_554  S
C933        C934   1.407       .  A
C933        O938   1.371       .  S
C934        C935   1.410       .  A
C935        C936   1.402       .  A
C935        H939   1.083       .  S
C936        O940   1.372       .  S
H937       C1334   1.075       .  S
O938        H942   0.992       .  S
O940        H941   0.992       .  S
C943        C944   1.413       .  A
C943        C948   1.429       .  A
C944        C945   1.396       .  A
C944        H949   1.084       .  S
C945        C946   1.417       .  A
C945        O950   1.372       .  S
C946        C947   1.409       .  A
C947        C948   1.425       .  A
C947        H951   1.083       .  S
C948        O952   1.373       .  S
O950        H954   0.992       .  S
O952        H953   0.992       .  S
C955        C956   1.403       .  A
C955        C960   1.393       .  A
C956        C957   1.421       .  A
C956        H961   1.083       .  S
C957        C958   1.427       .  A
C957        O962   1.376   1_554  S
C958       C1319   1.561   1_554  S
C958        C959   1.419       .  A
C959        C960   1.374       .  A
C959        H963   1.078       .  S
C960        O964   1.372       .  S
O962        H966   0.992       .  S
O964        H965   0.992       .  S
C967        C968   1.397       .  A
C967        C972   1.399       .  A
C968        C969   1.394       .  A
C968        H973   1.086       .  S
C969        C970   1.430       .  A
C969        O974   1.371       .  S
C970        C971   1.423       .  A
C971        C972   1.401       .  A
C971        H975   1.079       .  S
C972        O976   1.371       .  S
O974        H978   0.992       .  S
O976        H977   0.992       .  S
C979        C980   1.406       .  A
C979        C984   1.410       .  A
C980        C981   1.417       .  A
C980        H985   1.083       .  S
C981        C982   1.426       .  A
C981        O986   1.371       .  S
C982        C983   1.412       .  A
C983        C984   1.400       .  A
C983        H987   1.082       .  S
C984        O988   1.372       .  S
O986        H990   0.992       .  S
O988        H989   0.992       .  S
C991       C2524   1.577       .  S
C991        C992   1.419       .  A
C991        C996   1.428       .  A
C992        C993   1.393       .  A
C992        H997   1.079       .  S
C993        C994   1.404       .  A
C993        O998   1.372       .  S
C994        C995   1.405       .  A
C995        C996   1.423       .  A
C995        H999   1.078       .  S
C996       O1000   1.375       .  S
O998       H1002   0.992       .  S
O1000      H1001   0.992       .  S
C1003      C1004   1.408       .  A
C1003      C1008   1.410       .  A
C1004      C1005   1.427       .  A
C1004      H1009   1.078       .  S
C1005      C1006   1.419       .  A
C1005      O1010   1.374       .  S
C1006      C1007   1.409       .  A
C1007      C1008   1.373       .  A
C1007      H1011   1.082       .  S
C1008      O1012   1.376       .  S
O1010      H1014   0.992       .  S
O1012      H1013   0.993       .  S
C1015      C1016   1.419       .  A
C1015      C1020   1.422       .  A
C1016      C1017   1.416       .  A
C1016      H1021   1.080       .  S
C1017      C1018   1.410       .  A
C1017      O1022   1.371       .  S
C1018      C1019   1.401       .  A
C1019      C1020   1.402       .  A
C1019      H1023   1.084       .  S
C1020      O1024   1.372       .  S
O1022      H1026   0.992       .  S
O1024      H1025   0.992       .  S
C1027      C1028   1.420       .  A
C1027      C1032   1.435       .  A
C1028      C1029   1.398       .  A
C1028      H1033   1.076       .  S
C1029      C1030   1.400       .  A
C1029      O1034   1.372       .  S
C1030      C1031   1.390       .  A
C1031      C1032   1.393       .  A
C1031      H1035   1.086       .  S
C1032      O1036   1.376       .  S
O1034      H1038   0.991       .  S
O1036      H1037   0.993       .  S
C1039      C1040   1.408       .  A
C1039      C1044   1.389       .  A
C1040      C1041   1.390       .  A
C1040      H1045   1.081       .  S
C1041      C1042   1.407       .  A
C1041      O1046   1.372   1_455  S
C1042      C1043   1.433       .  A
C1043      C1044   1.393       .  A
C1043      H1047   1.080       .  S
C1044      O1048   1.372       .  S
O1046      H1050   0.989   1_655  S
O1048      H1049   0.992       .  S
C1051      C1052   1.420       .  A
C1051      C1056   1.417       .  A
C1052      C1053   1.411       .  A
C1052      H1057   1.080       .  S
C1053      C1054   1.410       .  A
C1053      O1058   1.371       .  S
C1054      C1055   1.409       .  A
C1055      C1056   1.401       .  A
C1055      H1059   1.083       .  S
C1056      O1060   1.374       .  S
O1058      H1062   0.992       .  S
O1060      H2669   0.992   1_455  S
H1061      O2668   0.992       .  S
C1063      C1064   1.413       .  A
C1063      C1068   1.427       .  A
C1064      C1065   1.403       .  A
C1065      C1066   1.410       .  A
C1065      O1070   1.373       .  S
C1066      C1067   1.407       .  A
C1067      C1068   1.420       .  A
C1067      H1071   1.083   1_565  S
C1068      O1072   1.371   1_565  S
O1072      H1073   0.992       .  S
C1075      C1076   1.395       .  A
C1075      C1080   1.400       .  A
C1077      O1082   1.371       .  S
C1078      C1079   1.423       .  A
C1079      C1080   1.403       .  A
C1079      H1083   1.080       .  S
C1080      O1084   1.371       .  S
O1082      H1086   0.992       .  S
O1084      H1085   0.992       .  S
C1087      C1088   1.394       .  A
C1087      C1092   1.403       .  A
C1088      C1089   1.393       .  A
C1088      H1093   1.085       .  S
C1089      C1090   1.432       .  A
C1089      O1094   1.371       .  S
C1090      C1091   1.420       .  A
C1091      C1092   1.402       .  A
C1091      H1095   1.075       .  S
C1092      O1498   1.372       .  S
O1094      H1098   0.992       .  S
O1096      C1494   1.372       .  S
O1096      H1097   0.991       .  S
C1099      C1100   1.401       .  A
C1099      C1104   1.408       .  A
C1100      C1101   1.399       .  A
C1100      H1105   1.084       .  S
C1101      C1102   1.421       .  A
C1101      O1106   1.372       .  S
C1102      C1103   1.418       .  A
C1103      C1104   1.414       .  A
C1103      H1107   1.080       .  S
C1104      O1510   1.370   1_554  S
O1106      H1110   0.992       .  S
O1108      C1506   1.370       .  S
O1108      H1109   0.992       .  S
C1111      C1112   1.417       .  A
C1111      C1518   1.439       .  A
C1112      C1113   1.391       .  A
C1112      H1117   1.075       .  S
C1113      C1114   1.405       .  A
C1113      O1118   1.375       .  S
C1114      C1517   1.394       .  A
C1115      C1516   1.394   1_554  A
C1115      C1116   1.411       .  A
C1115      H1119   1.084       .  S
C1116      C1513   1.439   1_554  A
C1116      O1120   1.372       .  S
O1118      H1122   0.992       .  S
O1120      H1121   0.993       .  S
C1123      C1526   1.395       .  A
C1123      C1128   1.405       .  A
C1124      C1525   1.395       .  A
C1124      C1125   1.404       .  A
C1124      H1129   1.084       .  S
C1125      C1126   1.430       .  A
C1125      O1130   1.371       .  S
C1126      C1529   1.410       .  A
C1127      C1528   1.410   1_554  A
C1127      C1128   1.403       .  A
C1127      H1131   1.077   1_554  S
C1128      O1132   1.371       .  S
O1130      H1134   0.992       .  S
O1132      H1133   0.992       .  S
C1135      C1136   1.398       .  A
C1135      C1140   1.407       .  A
C1136      C1137   1.407       .  A
C1136      H1141   1.084       .  S
C1137      C1138   1.430       .  A
C1137      O1544   1.372       .  S
C1138      C1139   1.416       .  A
C1139      C1140   1.408       .  A
C1139      H1143   1.072       .  S
C1140      O1144   1.374       .  S
O1142      C1539   1.372       .  S
O1142      H1146   0.992       .  S
O1144      H1145   0.992       .  S
C1147      C1148   1.397       .  A
C1147      C1152   1.406       .  A
C1148      C1149   1.381       .  A
C1148      H1153   1.085       .  S
C1149      C1150   1.425       .  A
C1149      O1154   1.372       .  S
C1150      C1151   1.418       .  A
C1151      C1152   1.415       .  A
C1151      H1557   1.078       .  S
C1152      O1558   1.366       .  S
O1154      H1158   0.993       .  S
H1155      C1553   1.078       .  S
O1156      C1554   1.366       .  S
O1156      H1157   0.992       .  S
C1159      C2413   1.577       .  S
C1159      C1160   1.415   1_455  A
C1159      C2772   1.423       .  A
C1160      C1161   1.422       .  A
C1160      H1165   1.077       .  S
C1161      C1162   1.410   1_655  A
C1161      O1166   1.369       .  S
C1162      C2771   1.408       .  A
C1163      C2770   1.408       .  A
C1163      C1164   1.398       .  A
C1163      H1167   1.083       .  S
C1164      C2767   1.423       .  A
C1164      O1168   1.374       .  S
O1168      H1169   0.992       .  S
C1171      C2780   1.403       .  A
C1171      C1176   1.392   1_655  A
C1172      C2779   1.403       .  A
C1172      C1173   1.420       .  A
C1172      H1177   1.083       .  S
C1173      C2782   1.429       .  A
C1173      O1178   1.374       .  S
C1174      C2413   1.567   1_655  S
C1174      C2781   1.429       .  A
C1174      C1175   1.418   1_655  A
C1175      C1176   1.371       .  A
C1175      H1179   1.078       .  S
C1176      O1180   1.374       .  S
O1178      H1182   0.992       .  S
O1180      H1181   0.992       .  S
C1183      C1184   1.413       .  A
C1183      C1188   1.436       .  A
C1184      C1185   1.386       .  A
C1184      H1189   1.076       .  S
C1185      C1186   1.404       .  A
C1185      O1190   1.375       .  S
C1186      C1187   1.391       .  A
C1187      C1188   1.404       .  A
C1187      H1191   1.084       .  S
C1188      O1192   1.373       .  S
O1190      H1194   0.992       .  S
O1192      H1193   0.992       .  S
C1195      C2413   1.562       .  S
C1195      C1196   1.421       .  A
C1195      C1200   1.415       .  A
C1196      C1197   1.400       .  A
C1196      H1201   1.084       .  S
C1197      C1198   1.400       .  A
C1197      O1202   1.371       .  S
C1198      C1199   1.403       .  A
C1199      C1200   1.403       .  A
C1199      H1203   1.085       .  S
C1200      O1204   1.371       .  S
O1202      H1206   0.992       .  S
O1204      H1205   0.992       .  S
C1207      C3169   1.577       .  S
C1207      C3184   1.567       .  S
C1207      C1585   1.566       .  S
C1207      C3205   1.562       .  S
O1208     Zr1244   2.473       .  S
O1208      C2827   1.296       .  A
O1209     Zr1243   2.512       .  S
O1209      C1220   1.305       .  A
O1210     Zr1216   2.519       .  S
O1210      C1221   1.307       .  A
O1211      C1222   1.302       .  A
O1212     Zr1246   2.420   1_455  S
O1212      C1222   1.290       .  A
O1213      C1221   1.281       .  A
O1214      C1220   1.289   1_545  A
O1215     Zr1216   2.374       .  S
O1215      C1219   1.283   1_455  A
Zr1216     O1218   2.340       .  S
Zr1216     O1224   2.330       .  S
O1217     Zr1243   2.326       .  S
O1217     Zr1246   2.344   1_455  S
O1218     Zr2852   2.332   1_455  S
C1219      O2816   1.296       .  A
C1219      C1573   1.461       .  S
C1220      C1468   1.502       .  S
C1221      C1537   1.480       .  S
C1222      C1456   1.504       .  S
H1223      O1224   0.965       .  S
H1225      O2834   0.965       .  S
O1226     Zr2048   2.352   1_565  S
O1226     Zr1246   2.331       .  S
O1226      H2833   0.965       .  S
O1227      C1250   1.299       .  A
O1228     Zr1244   2.496       .  S
O1229     Zr1245   2.500       .  S
O1229      C1252   1.302       .  A
O1230     Zr1246   2.501   1_455  S
O1230      C1253   1.301       .  A
O1231     Zr2854   2.490       .  S
O1231      C1254   1.300       .  A
O1232     Zr1245   2.479       .  S
O1232      C2461   1.298   1_455  A
O1233      C2864   1.306       .  A
O1234     Zr1247   2.505       .  S
O1234      C1257   1.304       .  A
O1235     Zr1245   2.412       .  S
O1235      C1256   1.289       .  A
O1236     Zr2854   2.372       .  S
O1238     Zr1244   2.388       .  S
O1238      C1255   1.284       .  A
O1239      C1254   1.274       .  A
O1240     Zr1243   2.370       .  S
O1240      C1253   1.282       .  A
O1241     Zr2855   2.336   1_455  S
O1241      C1250   1.276       .  A
O1242     Zr1247   2.405       .  S
Zr1243     O1261   2.330       .  S
Zr1244     O2826   2.332       .  S
Zr1244     O2030   2.352       .  S
Zr1245     O2867   2.356   1_455  S
Zr1246     O2839   2.490       .  S
Zr1246     O2844   2.372       .  S
Zr1246     O2856   2.351       .  S
Zr1246     O1261   2.341   1_655  S
Zr1247     O2849   2.336       .  S
Zr1247     O2857   2.345   1_565  S
Zr1247     O2467   2.351       .  S
O1248     Zr2854   2.351       .  S
O1249     Zr2855   2.345   1_445  S
C1250      C1441   1.463       .  S
C1251      C1501   1.491       .  S
C1252      C1489   1.452       .  S
C1253      C1549   1.484       .  S
C1254      C1477   1.454       .  S
C1255      O2438   1.298   1_556  A
C1255      C1516   1.482       .  S
C1256      O2841   1.306   1_455  A
C1256      C1564   1.513       .  S
C1257      C1525   1.468       .  S
H1258      O1259   0.966       .  S
O1259     Zr2853   2.356       .  S
O1261     Zr2453   2.351   1_456  S
C1262      C1429   1.561       .  S
C1262      C1492   1.562       .  S
C1262      C1504   1.566       .  S
O1263     Zr1299   2.499       .  S
O1263      C1274   1.303       .  A
O1264     Zr1298   2.501       .  S
O1264      C1275   1.304       .  A
O1265     Zr1271   2.495       .  S
O1265      C1276   1.299       .  A
O1266     Zr1271   2.475       .  S
O1266      C1277   1.297       .  A
O1267     Zr1301   2.335       .  S
O1267      C1277   1.274       .  A
O1268     Zr1300   2.358       .  S
O1268      C1276   1.277       .  A
O1269     Zr1271   2.415       .  S
O1269      C1275   1.289       .  A
O1270     Zr1271   2.359       .  S
O1270      C1274   1.278       .  A
Zr1271     O1272   2.326       .  S
Zr1271     O1273   2.336       .  S
Zr1271     O1281   2.355       .  S
Zr1271     O1279   2.345       .  S
O1272     Zr1298   2.345       .  S
O1272     Zr1301   2.348       .  S
O1273     Zr1299   2.346       .  S
O1273     Zr1300   2.323       .  S
C1274      C1600   1.462       .  S
C1275      C1336   1.508       .  S
C1276      C1405   1.488       .  S
C1277      C1432   1.444       .  S
H1278      O1279   0.966       .  S
O1279     Zr1298   2.342       .  S
O1279     Zr1300   2.326       .  S
H1280      O1281   0.966       .  S
O1281     Zr1299   2.330       .  S
O1281     Zr1301   2.326       .  S
O1282     Zr1298   2.530       .  S
O1282      C1305   1.309       .  A
O1283     Zr1299   2.511       .  S
O1283      C1306   1.305       .  A
O1284     Zr1300   2.490       .  S
O1284      C1307   1.301       .  A
O1285     Zr1301   2.468       .  S
O1285      C1308   1.295       .  A
O1286     Zr1301   2.503       .  S
O1286      C1309   1.303       .  A
O1287     Zr1300   2.466       .  S
O1287      C1310   1.296       .  A
O1288     Zr1302   2.497       .  S
O1288      C1311   1.301       .  A
O1289     Zr1302   2.455       .  S
O1289      C1312   1.294       .  A
O1290     Zr1300   2.329       .  S
O1290      C1311   1.272       .  A
O1291     Zr1301   2.388       .  S
O1291      C1312   1.284       .  A
O1292     Zr1298   2.430       .  S
O1292      C1307   1.291       .  A
O1293     Zr1299   2.353       .  S
O1293      C1310   1.279       .  A
O1294     Zr1299   2.412       .  S
O1294      C1309   1.287       .  A
O1295     Zr1298   2.382       .  S
O1295      C1308   1.284       .  A
O1296     Zr1302   2.376       .  S
O1296      C1305   1.282       .  A
O1297     Zr1302   2.419       .  S
O1297      C1306   1.289       .  A
Zr1298     O1304   2.337       .  S
Zr1298     O1316   2.348       .  S
Zr1299     O1303   2.339       .  S
Zr1299     O1314   2.346       .  S
Zr1300     O1304   2.321       .  S
Zr1300     O1314   2.335       .  S
Zr1301     O1303   2.328       .  S
Zr1301     O1316   2.337       .  S
Zr1302     O1303   2.353       .  S
Zr1302     O1304   2.339       .  S
Zr1302     O1316   2.344       .  S
Zr1302     O1314   2.310       .  S
C1305      C1396   1.490       .  S
C1306      C1348   1.513       .  S
C1307      C1420   1.497       .  S
C1308      C1357   1.462       .  S
C1309      C1381   1.497       .  S
C1310      C1324   1.446       .  S
C1311      C1369   1.455       .  S
C1312      C1588   1.466       .  S
H1313      O1314   0.965       .  S
H1315      O1316   0.965       .  S
C1317      C1321   1.554       .  S
C1317      C1540   1.577       .  S
C1317      C1552   1.568       .  S
C1318      C3001   1.577   1_455  S
C1318      C1408   1.556       .  S
C1318      C1444   1.559       .  S
C1318      C1453   1.578       .  S
C1319      C1345   1.583       .  S
C1319      C1513   1.584       .  S
C1319      C1528   1.569       .  S
C1320      C1372   1.564       .  S
C1320      C1465   1.572       .  S
C1320      C1480   1.563       .  S
C1321      C1322   1.404       .  A
C1321      C1326   1.434       .  A
C1322      C1323   1.391       .  A
C1322      H1327   1.078       .  S
C1323      C1324   1.408       .  A
C1323      O1328   1.372       .  S
C1324      C1325   1.385       .  A
C1325      C1326   1.392       .  A
C1325      H1329   1.085       .  S
C1326      O1330   1.372       .  S
O1328      H1332   0.991       .  S
O1330      H1331   0.992       .  S
C1333      C1334   1.425       .  A
C1333      C1338   1.419       .  A
C1334      C1335   1.411       .  A
C1335      C1336   1.407       .  A
C1335      O1340   1.371       .  S
C1336      C1337   1.410       .  A
C1337      C1338   1.402       .  A
C1337      H1341   1.083       .  S
C1338      O1342   1.372       .  S
O1340      H1344   0.992       .  S
O1342      H1343   0.992       .  S
C1345      C1346   1.413       .  A
C1345      C1350   1.429       .  A
C1346      C1347   1.396       .  A
C1346      H1351   1.084       .  S
C1347      C1348   1.417       .  A
C1347      O1352   1.372       .  S
C1348      C1349   1.409       .  A
C1349      C1350   1.425       .  A
C1349      H1353   1.083       .  S
C1350      O1354   1.373       .  S
O1352      H1356   0.992       .  S
O1354      H1355   0.992       .  S
C1357      C1358   1.403       .  A
C1357      C1362   1.393       .  A
C1358      C1359   1.421       .  A
C1358      H1363   1.083       .  S
C1359      C1360   1.427       .  A
C1359      O1364   1.376       .  S
C1360      C1361   1.419       .  A
C1361      C1362   1.374       .  A
C1361      H1365   1.078       .  S
C1362      O1366   1.372       .  S
O1364      H1368   0.992       .  S
O1366      H1367   0.992       .  S
C1369      C1370   1.397       .  A
C1369      C1374   1.399       .  A
C1370      C1371   1.394       .  A
C1370      H1375   1.086       .  S
C1371      C1372   1.430       .  A
C1371      O1376   1.371       .  S
C1372      C1373   1.423       .  A
C1373      C1374   1.401       .  A
C1373      H1377   1.079       .  S
C1374      O1378   1.371       .  S
O1376      H1380   0.992       .  S
O1378      H1379   0.992       .  S
C1381      C1382   1.406       .  A
C1381      C1386   1.410       .  A
C1382      C1383   1.417       .  A
C1382      H1387   1.083       .  S
C1383      C1384   1.426       .  A
C1383      O1388   1.371       .  S
C1384      C1385   1.412       .  A
C1385      C1386   1.400       .  A
C1385      H1389   1.082       .  S
C1386      O1390   1.372       .  S
O1388      H1392   0.992       .  S
O1390      H1391   0.992       .  S
C1393      C2926   1.577       .  S
C1393      C1394   1.419       .  A
C1393      C1398   1.428       .  A
C1394      C1395   1.393       .  A
C1394      H1399   1.079       .  S
C1395      C1396   1.404       .  A
C1395      O1400   1.372       .  S
C1396      C1397   1.405       .  A
C1397      C1398   1.423       .  A
C1397      H1401   1.078       .  S
C1398      O1402   1.375       .  S
O1400      H1404   0.992       .  S
O1402      H1403   0.992       .  S
C1405      C1406   1.408       .  A
C1405      C1410   1.410       .  A
C1406      C1407   1.427       .  A
C1406      H1411   1.078       .  S
C1407      C1408   1.419       .  A
C1407      O1412   1.374       .  S
C1408      C1409   1.409       .  A
C1409      C1410   1.373       .  A
C1409      H1413   1.082       .  S
C1410      O1414   1.376       .  S
O1412      H1416   0.992       .  S
O1414      H1415   0.993       .  S
C1417      C1418   1.419       .  A
C1417      C1422   1.422       .  A
C1418      C1419   1.416       .  A
C1418      H1423   1.080       .  S
C1419      C1420   1.410       .  A
C1419      O1424   1.371       .  S
C1420      C1421   1.401       .  A
C1421      C1422   1.402       .  A
C1421      H1425   1.084       .  S
C1422      O1426   1.372       .  S
O1424      H1428   0.992       .  S
O1426      H1427   0.992       .  S
C1429      C1430   1.420       .  A
C1429      C1434   1.435       .  A
C1430      C1431   1.398       .  A
C1430      H1435   1.076       .  S
C1431      C1432   1.400       .  A
C1431      O1436   1.372       .  S
C1432      C1433   1.390       .  A
C1433      C1434   1.393       .  A
C1433      H1437   1.086       .  S
C1434      O1438   1.376       .  S
O1436      H1440   0.991       .  S
O1438      H1439   0.993       .  S
C1441      C1442   1.408       .  A
C1441      C1446   1.389       .  A
C1442      C1443   1.389       .  A
C1442      H1447   1.081       .  S
C1443      C1444   1.407       .  A
C1443      O1448   1.372   1_455  S
C1444      C1445   1.433       .  A
C1445      C1446   1.393       .  A
C1445      H1449   1.080       .  S
C1446      O1450   1.372       .  S
O1448      H1452   0.989   1_655  S
O1450      H1451   0.992       .  S
C1453      C1454   1.420       .  A
C1453      C1458   1.417       .  A
C1454      C1455   1.411       .  A
C1454      H1459   1.080       .  S
C1455      C1456   1.410       .  A
C1455      O1460   1.371       .  S
C1456      C1457   1.409       .  A
C1457      C1458   1.401       .  A
C1457      H1461   1.083       .  S
C1458      O1462   1.374       .  S
O1460      H1464   0.992       .  S
O1462      H3071   0.992   1_455  S
H1463      O3070   0.992       .  S
C1465      C1466   1.413       .  A
C1465      C1470   1.427       .  A
C1466      C1467   1.403       .  A
C1467      C1468   1.410       .  A
C1467      O1472   1.373       .  S
C1468      C1469   1.407       .  A
C1469      C1470   1.420       .  A
C1469      H1473   1.083   1_565  S
C1470      O1474   1.371   1_565  S
O1474      H1475   0.992       .  S
C1477      C1478   1.395       .  A
C1477      C1482   1.400       .  A
C1479      O1484   1.371       .  S
C1480      C1481   1.423       .  A
C1481      C1482   1.403       .  A
C1481      H1485   1.080       .  S
C1482      O1486   1.371       .  S
O1484      H1488   0.992       .  S
O1486      H1487   0.992       .  S
C1489      C1490   1.394       .  A
C1489      C1494   1.403       .  A
C1490      C1491   1.393       .  A
C1490      H1495   1.085       .  S
C1491      C1492   1.432       .  A
C1491      O1496   1.371       .  S
C1492      C1493   1.420       .  A
C1493      C1494   1.402       .  A
C1493      H1497   1.075       .  S
O1496      H1500   0.992       .  S
O1498      H1499   0.991       .  S
C1501      C1502   1.401       .  A
C1501      C1506   1.408       .  A
C1502      C1503   1.399       .  A
C1502      H1507   1.084       .  S
C1503      C1504   1.421       .  A
C1503      O1508   1.372       .  S
C1504      C1505   1.418       .  A
C1505      C1506   1.414       .  A
C1505      H1509   1.080       .  S
O1508      H1512   0.992       .  S
O1510      H1511   0.992       .  S
C1513      C1514   1.417       .  A
C1514      C1515   1.391       .  A
C1514      H1519   1.075       .  S
C1515      C1516   1.405       .  A
C1515      O1520   1.375       .  S
C1517      C1518   1.411       .  A
C1517      H1521   1.084       .  S
C1518      O1522   1.372       .  S
O1520      H1524   0.992       .  S
O1522      H1523   0.993       .  S
C1525      C1530   1.405       .  A
C1526      C1527   1.404   1_554  A
C1526      H1531   1.084       .  S
C1527      C1528   1.430       .  A
C1527      O1532   1.371       .  S
C1529      C1530   1.403       .  A
C1529      H1533   1.077       .  S
C1530      O1534   1.371       .  S
O1532      H1536   0.992       .  S
O1534      H1535   0.992       .  S
C1537      C1538   1.398       .  A
C1537      C1542   1.407       .  A
C1538      C1539   1.407       .  A
C1538      H1543   1.084       .  S
C1539      C1540   1.430       .  A
C1540      C1541   1.416       .  A
C1541      C1542   1.408       .  A
C1541      H1545   1.072       .  S
C1542      O1546   1.374       .  S
O1544      H1548   0.992       .  S
O1546      H1547   0.992       .  S
C1549      C1550   1.397       .  A
C1549      C1554   1.406       .  A
C1550      C1551   1.381       .  A
C1550      H1555   1.085       .  S
C1551      C1552   1.425       .  A
C1551      O1556   1.372       .  S
C1552      C1553   1.418       .  A
C1553      C1554   1.415       .  A
O1556      H1560   0.993       .  S
O1558      H1559   0.992       .  S
C1561      C2815   1.577       .  S
C1561      C1562   1.415   1_455  A
C1561      C3174   1.423       .  A
C1562      C1563   1.422       .  A
C1562      H1567   1.077       .  S
C1563      C1564   1.410   1_655  A
C1563      O1568   1.369       .  S
C1564      C3173   1.408       .  A
C1565      C3172   1.408       .  A
C1565      C1566   1.398       .  A
C1565      H1569   1.083       .  S
C1566      C3169   1.423       .  A
C1566      O1570   1.374       .  S
O1570      H1571   0.992       .  S
C1573      C3182   1.403       .  A
C1573      C1578   1.392   1_655  A
C1574      C3181   1.403       .  A
C1574      C1575   1.420       .  A
C1574      H1579   1.083       .  S
C1575      C3184   1.429       .  A
C1575      O1580   1.374       .  S
C1576      C2815   1.567   1_655  S
C1576      C3183   1.429       .  A
C1576      C1577   1.418   1_655  A
C1577      C1578   1.371       .  A
C1577      H1581   1.078       .  S
C1578      O1582   1.374       .  S
O1580      H1584   0.992       .  S
O1582      H1583   0.992       .  S
C1585      C1586   1.413       .  A
C1585      C1590   1.436       .  A
C1586      C1587   1.386       .  A
C1586      H1591   1.076       .  S
C1587      C1588   1.404       .  A
C1587      O1592   1.375       .  S
C1588      C1589   1.391       .  A
C1589      C1590   1.404       .  A
C1589      H1593   1.084       .  S
C1590      O1594   1.373       .  S
O1592      H1596   0.992       .  S
O1594      H1595   0.992       .  S
C1597      C2815   1.562       .  S
C1597      C1598   1.421       .  A
C1597      C1602   1.415       .  A
C1598      C1599   1.400       .  A
C1598      H1603   1.084       .  S
C1599      C1600   1.400       .  A
C1599      O1604   1.371       .  S
C1600      C1601   1.403       .  A
C1601      C1602   1.403       .  A
C1601      H1605   1.085       .  S
C1602      O1606   1.371       .  S
O1604      H1608   0.992       .  S
O1606      H1607   0.992       .  S
C1609      C1987   1.566   1_455  S
O1610     Zr1646   2.473       .  S
O1611     Zr1645   2.512       .  S
O1611      C1622   1.305       .  A
O1612     Zr1618   2.519       .  S
O1612      C1623   1.307       .  A
O1613     Zr2422   2.490       .  S
O1613      C1624   1.302       .  A
O1614     Zr1648   2.420       .  S
O1614      C1624   1.290       .  A
O1615     Zr2049   2.380       .  S
O1615      C1623   1.281       .  A
O1616     Zr2422   2.420       .  S
O1616      C1622   1.289       .  A
O1617     Zr1618   2.373       .  S
O1617      C1621   1.283       .  A
Zr1618     O2417   2.490   1_545  S
Zr1618     O2420   2.420       .  S
Zr1618     O2423   2.338   1_545  S
Zr1618     O1620   2.340       .  S
Zr1618     O2432   2.350   1_545  S
Zr1618     O1626   2.330       .  S
O1619     Zr2422   2.338       .  S
O1619     Zr1645   2.326       .  S
O1619     Zr1648   2.344       .  S
O1620     Zr2049   2.340       .  S
C1621      C1975   1.461       .  S
C1622      C1870   1.502       .  S
C1623      C1939   1.480       .  S
C1624      C1858   1.504       .  S
H1625      O1626   0.965       .  S
O1626     Zr2449   2.330   1_545  S
O1626     Zr2049   2.344       .  S
O1628     Zr2422   2.350       .  S
O1628     Zr1648   2.331       .  S
O1629     Zr2047   2.482   1_554  S
O1629      C1652   1.299       .  A
O1630     Zr1646   2.497       .  S
O1630      C2055   1.301       .  A
O1631     Zr1647   2.500       .  S
O1631      C1654   1.302       .  A
O1632     Zr1648   2.501       .  S
O1632      C1655   1.301       .  A
O1633      C1656   1.300       .  A
O1634     Zr1647   2.479       .  S
O1635     Zr2453   2.515   1_545  S
O1636     Zr1649   2.505       .  S
O1636      C1659   1.304       .  A
O1637     Zr1647   2.412       .  S
O1637      C1658   1.289       .  A
O1638      C2061   1.280       .  A
O1639     Zr2047   2.325   1_554  S
O1639      C2458   1.272       .  A
O1640     Zr1646   2.388       .  S
O1640      C1657   1.284       .  A
O1641     Zr2450   2.337       .  S
O1641      C1656   1.274       .  A
O1642     Zr1645   2.370       .  S
O1642      C1655   1.282       .  A
O1643      C1652   1.276       .  A
O1644     Zr1649   2.405       .  S
O1644      C2457   1.286       .  A
Zr1645     O2031   2.482       .  S
Zr1645     O2041   2.325       .  S
Zr1645     O2430   2.330       .  S
Zr1645     O2053   2.338       .  S
Zr1645     O1663   2.330       .  S
Zr1646     O2445   2.336   1_545  S
Zr1646     O2454   2.326   1_545  S
Zr1646     O2063   2.331       .  S
Zr1647     O2017   2.380   1_554  S
Zr1647     O2022   2.340   1_554  S
Zr1647     O2028   2.344   1_554  S
Zr1647     O2455   2.324       .  S
Zr1648     O1663   2.341       .  S
Zr1649     O2439   2.515       .  S
Zr1649     O2052   2.325   1_554  S
Zr1649     O2465   2.338       .  S
O1650     Zr2450   2.326       .  S
O1650     Zr2051   2.325       .  S
O1651     Zr2047   2.338   1_554  S
O1651     Zr2451   2.324       .  S
C1652      C1843   1.463       .  S
C1653      O2032   1.301   1_554  A
C1653      O2448   1.286   1_545  A
C1653      C1903   1.491       .  S
C1654      O2443   1.272       .  A
C1654      C1891   1.452       .  S
C1655      C1951   1.484       .  S
C1656      C1879   1.454       .  S
C1657      C1918   1.482       .  S
C1658      C1966   1.513       .  S
C1659      O2040   1.280   1_554  A
C1659      C1927   1.468       .  S
H1660      O1661   0.966       .  S
O1661     Zr2048   2.330   1_554  S
O1661     Zr2453   2.338   1_545  S
H1662      O2065   0.965   1_554  S
O1663      H2064   0.965       .  S
C1664      C2623   1.571   1_545  S
C1664      C1831   1.561       .  S
C1664      C1894   1.562       .  S
C1664      C1906   1.566       .  S
O1665     Zr1701   2.499       .  S
O1665      C1676   1.303       .  A
O1666     Zr1700   2.501       .  S
O1666      C1677   1.304       .  A
O1667     Zr1673   2.495       .  S
O1667      C1678   1.299       .  A
O1668     Zr1673   2.475       .  S
O1668      C1679   1.297       .  A
O1669     Zr1703   2.335       .  S
O1669      C1679   1.274       .  A
O1670     Zr1702   2.358       .  S
O1670      C1678   1.277       .  A
O1671     Zr1673   2.415       .  S
O1671      C1677   1.289       .  A
O1672     Zr1673   2.359       .  S
O1672      C1676   1.278       .  A
Zr1673     O1674   2.326       .  S
Zr1673     O1675   2.336       .  S
Zr1673     O1683   2.355       .  S
Zr1673     O1681   2.345       .  S
O1674     Zr1700   2.345       .  S
O1674     Zr1703   2.348       .  S
O1675     Zr1701   2.346       .  S
O1675     Zr1702   2.323       .  S
C1676      C2002   1.462       .  S
C1677      C1738   1.508       .  S
C1678      C1807   1.488       .  S
C1679      C1834   1.443       .  S
H1680      O1681   0.966       .  S
O1681     Zr1700   2.342       .  S
O1681     Zr1702   2.326       .  S
H1682      O1683   0.966       .  S
O1683     Zr1701   2.330       .  S
O1683     Zr1703   2.326       .  S
O1684     Zr1700   2.530       .  S
O1684      C1707   1.309       .  A
O1685     Zr1701   2.511       .  S
O1685      C1708   1.305       .  A
O1686     Zr1702   2.490       .  S
O1686      C1709   1.301       .  A
O1687     Zr1703   2.468       .  S
O1687      C1710   1.295       .  A
O1688     Zr1703   2.503       .  S
O1688      C1711   1.303       .  A
O1689     Zr1702   2.466       .  S
O1689      C1712   1.296       .  A
O1690     Zr1704   2.497       .  S
O1690      C1713   1.301       .  A
O1691     Zr1704   2.455       .  S
O1691      C1714   1.294       .  A
O1692     Zr1702   2.329       .  S
O1692      C1713   1.272       .  A
O1693     Zr1703   2.388       .  S
O1693      C1714   1.284       .  A
O1694     Zr1700   2.429       .  S
O1694      C1709   1.291       .  A
O1695     Zr1701   2.353       .  S
O1695      C1712   1.279       .  A
O1696     Zr1701   2.412       .  S
O1696      C1711   1.287       .  A
O1697     Zr1700   2.382       .  S
O1697      C1710   1.284       .  A
O1698     Zr1704   2.376       .  S
O1698      C1707   1.282       .  A
O1699     Zr1704   2.419       .  S
O1699      C1708   1.289       .  A
Zr1700     O1706   2.337       .  S
Zr1700     O1718   2.348       .  S
Zr1701     O1705   2.339       .  S
Zr1701     O1716   2.346       .  S
Zr1702     O1706   2.321       .  S
Zr1702     O1716   2.335       .  S
Zr1703     O1705   2.328       .  S
Zr1703     O1718   2.337       .  S
Zr1704     O1705   2.353       .  S
Zr1704     O1706   2.339       .  S
Zr1704     O1718   2.344       .  S
Zr1704     O1716   2.310       .  S
C1707      C1798   1.490       .  S
C1708      C1750   1.513       .  S
C1709      C1822   1.497       .  S
C1710      C1759   1.462       .  S
C1711      C1783   1.497       .  S
C1712      C1726   1.446       .  S
C1713      C1771   1.455       .  S
C1714      C1990   1.466       .  S
H1715      O1716   0.965       .  S
H1717      O1718   0.965       .  S
C1719      C1723   1.554       .  S
C1719      C2137   1.581       .  S
C1719      C1942   1.577       .  S
C1719      C1954   1.568       .  S
C1720      C1810   1.556       .  S
C1720      C1846   1.559       .  S
C1720      C1855   1.578       .  S
C1721      C1747   1.583       .  S
C1721      C2164   1.561       .  S
C1721      C1915   1.584       .  S
C1721      C1930   1.569       .  S
C1722      C1774   1.563       .  S
C1722      C2590   1.569       .  S
C1722      C1867   1.572       .  S
C1722      C1882   1.563       .  S
C1723      C1724   1.404       .  A
C1723      C1728   1.434       .  A
C1724      C1725   1.391       .  A
C1724      H1729   1.078       .  S
C1725      C1726   1.408       .  A
C1725      O1730   1.372       .  S
C1726      C1727   1.385       .  A
C1727      C1728   1.392       .  A
C1727      H1731   1.085       .  S
C1728      O1732   1.372       .  S
O1730      H1734   0.991       .  S
O1732      H1733   0.992       .  S
C1735      C2121   1.581       .  S
C1735      C1736   1.425   1_556  A
C1735      C1740   1.419   1_556  A
C1736      C1737   1.411       .  A
C1736      H2143   1.075   1_554  S
C1737      C1738   1.407       .  A
C1737      O1742   1.371       .  S
C1738      C1739   1.410       .  A
C1739      C1740   1.402       .  A
C1739      H1743   1.083       .  S
C1740      O1744   1.372       .  S
H1741      C2138   1.075       .  S
O1742      H1746   0.992       .  S
O1744      H1745   0.992       .  S
C1747      C1748   1.413       .  A
C1747      C1752   1.429       .  A
C1748      C1749   1.396       .  A
C1748      H1753   1.084       .  S
C1749      C1750   1.417       .  A
C1749      O1754   1.372       .  S
C1750      C1751   1.409       .  A
C1751      C1752   1.425       .  A
C1751      H1755   1.083       .  S
C1752      O1756   1.373       .  S
O1754      H1758   0.992       .  S
O1756      H1757   0.992       .  S
C1759      C1760   1.403       .  A
C1759      C1764   1.393       .  A
C1760      C1761   1.421       .  A
C1760      H1765   1.083       .  S
C1761      C1762   1.427       .  A
C1761      O1766   1.376   1_554  S
C1762      C2123   1.561   1_554  S
C1762      C1763   1.419       .  A
C1763      C1764   1.374       .  A
C1763      H1767   1.078       .  S
C1764      O1768   1.372       .  S
O1766      H1770   0.992       .  S
O1768      H1769   0.992       .  S
C1771      C1772   1.397       .  A
C1771      C1776   1.399       .  A
C1772      C1773   1.394       .  A
C1772      H1777   1.086       .  S
C1773      C1774   1.430       .  A
C1773      O1778   1.371       .  S
C1774      C1775   1.423       .  A
C1775      C1776   1.401       .  A
C1775      H1779   1.079       .  S
C1776      O1780   1.371       .  S
O1778      H1782   0.992       .  S
O1780      H1781   0.992       .  S
C1783      C1784   1.406       .  A
C1783      C1788   1.410       .  A
C1784      C1785   1.417       .  A
C1784      H1789   1.083       .  S
C1785      C1786   1.426       .  A
C1785      O1790   1.371       .  S
C1786      C2526   1.569   1_545  S
C1786      C1787   1.412       .  A
C1787      C1788   1.400       .  A
C1787      H1791   1.082       .  S
C1788      O1792   1.372       .  S
O1790      H1794   0.992       .  S
O1792      H1793   0.992       .  S
C1795      C1796   1.419       .  A
C1795      C1800   1.428       .  A
C1796      C1797   1.393       .  A
C1796      H1801   1.079       .  S
C1797      C1798   1.404       .  A
C1797      O1802   1.372       .  S
C1798      C1799   1.405       .  A
C1799      C1800   1.423       .  A
C1799      H1803   1.078       .  S
C1800      O1804   1.375       .  S
O1802      H1806   0.992       .  S
O1804      H1805   0.992       .  S
C1807      C1808   1.408       .  A
C1807      C1812   1.410       .  A
C1808      C1809   1.427       .  A
C1808      H1813   1.078       .  S
C1809      C1810   1.419       .  A
C1809      O1814   1.374       .  S
C1810      C1811   1.409       .  A
C1811      C1812   1.372       .  A
C1811      H1815   1.082       .  S
C1812      O1816   1.376       .  S
O1814      H1818   0.992       .  S
O1816      H1817   0.993       .  S
C1819      C2468   1.571       .  S
C1819      C1820   1.419       .  A
C1819      C1824   1.422       .  A
C1820      C1821   1.416       .  A
C1820      H1825   1.080       .  S
C1821      C1822   1.410       .  A
C1821      O1826   1.371       .  S
C1822      C1823   1.401       .  A
C1823      C1824   1.402       .  A
C1823      H1827   1.084       .  S
C1824      O1828   1.372       .  S
O1826      H1830   0.992       .  S
O1828      H1829   0.992       .  S
C1831      C1832   1.420       .  A
C1831      C1836   1.435       .  A
C1832      C1833   1.398       .  A
C1832      H1837   1.076       .  S
C1833      C1834   1.400       .  A
C1833      O1838   1.372       .  S
C1834      C1835   1.390       .  A
C1835      C1836   1.393       .  A
C1835      H1839   1.086       .  S
C1836      O1840   1.376       .  S
O1838      H1842   0.991       .  S
O1840      H1841   0.993       .  S
C1843      C1844   1.408       .  A
C1843      C1848   1.389       .  A
C1844      C1845   1.390       .  A
C1844      H1849   1.081       .  S
C1845      C1846   1.407       .  A
C1845      O1850   1.372       .  S
C1846      C1847   1.433       .  A
C1847      C1848   1.393       .  A
C1847      H1851   1.080       .  S
C1848      O1852   1.372       .  S
O1850      H1854   0.989       .  S
O1852      H1853   0.992       .  S
C1855      C1856   1.420       .  A
C1855      C1860   1.417       .  A
C1856      C1857   1.411       .  A
C1856      H1861   1.080       .  S
C1857      C1858   1.410       .  A
C1857      O1862   1.371       .  S
C1858      C1859   1.409       .  A
C1859      C1860   1.401       .  A
C1859      H1863   1.083       .  S
C1860      O1864   1.374       .  S
O1862      H1866   0.992       .  S
C1867      C1868   1.413       .  A
C1867      C1872   1.427       .  A
C1868      C1869   1.403       .  A
C1868      H2677   1.082       .  S
C1869      C1870   1.410       .  A
C1869      O1874   1.373       .  S
C1870      C1871   1.407       .  A
C1871      C1872   1.420       .  A
C1871      H1875   1.083       .  S
C1872      O1876   1.371       .  S
H1873      C2672   1.082       .  S
O1874      H2682   0.992       .  S
O1876      H1877   0.992       .  S
H1878      O2678   0.992       .  S
C1879      C1880   1.395       .  A
C1879      C1884   1.400       .  A
C1880      C2685   1.391       .  A
C1880      H2689   1.086       .  S
C1881      C2684   1.391   1_545  A
C1881      C2686   1.432   1_545  A
C1881      O1886   1.371       .  S
C1882      C2685   1.432       .  A
C1882      C1883   1.423       .  A
C1883      C1884   1.403       .  A
C1883      H1887   1.080       .  S
C1884      O1888   1.371       .  S
H1885      C2684   1.086       .  S
O1886      H1890   0.992       .  S
O1888      H1889   0.992       .  S
C1891      C1892   1.394       .  A
C1891      C1896   1.403       .  A
C1892      C1893   1.393   1_545  A
C1892      H1897   1.085       .  S
C1893      C1894   1.432   1_565  A
C1893      O1898   1.371       .  S
C1894      C1895   1.420       .  A
C1895      C1896   1.402       .  A
C1895      H1899   1.075       .  S
C1896      O2302   1.372       .  S
O1898      H1902   0.992       .  S
O1900      C2298   1.372       .  S
O1900      H1901   0.991       .  S
C1903      C1904   1.401       .  A
C1903      C1908   1.408       .  A
C1904      C1905   1.399       .  A
C1904      H1909   1.084       .  S
C1905      C1906   1.421       .  A
C1905      O1910   1.372       .  S
C1906      C1907   1.418   1_545  A
C1907      C1908   1.414   1_565  A
C1907      H1911   1.080       .  S
C1908      O2314   1.370   1_544  S
O1910      H1914   0.992   1_545  S
O1912      C2310   1.370   1_565  S
O1912      H1913   0.992   1_565  S
C1915      C1916   1.417       .  A
C1915      C2322   1.439       .  A
C1916      C1917   1.391       .  A
C1916      H1921   1.075       .  S
C1917      C1918   1.405       .  A
C1917      O1922   1.375       .  S
C1918      C2321   1.394       .  A
C1919      C2320   1.394   1_554  A
C1919      C1920   1.411       .  A
C1919      H1923   1.084       .  S
C1920      C2317   1.439   1_554  A
C1920      O1924   1.372       .  S
O1922      H1926   0.992       .  S
O1924      H1925   0.993       .  S
C1927      C2330   1.395       .  A
C1927      C1932   1.405       .  A
C1928      C2329   1.395       .  A
C1928      C1929   1.404       .  A
C1928      H1933   1.084       .  S
C1929      C1930   1.430       .  A
C1929      O1934   1.371       .  S
C1930      C2333   1.410       .  A
C1931      C2332   1.410   1_554  A
C1931      C1932   1.403       .  A
C1931      H1935   1.077   1_554  S
C1932      O1936   1.371       .  S
O1934      H1938   0.992       .  S
O1936      H1937   0.992       .  S
C1939      C1940   1.398       .  A
C1939      C1944   1.407       .  A
C1940      C1941   1.407       .  A
C1940      H1945   1.084       .  S
C1941      C1942   1.430       .  A
C1941      O2348   1.372       .  S
C1942      C1943   1.416       .  A
C1943      C1944   1.408       .  A
C1943      H1947   1.072       .  S
C1944      O1948   1.374       .  S
O1946      C2343   1.372       .  S
O1946      H1950   0.992       .  S
O1948      H1949   0.992       .  S
C1951      C1952   1.397       .  A
C1951      C1956   1.406       .  A
C1952      C1953   1.381       .  A
C1952      H1957   1.085       .  S
C1953      C1954   1.425       .  A
C1953      O1958   1.372       .  S
C1954      C1955   1.418       .  A
C1955      C1956   1.415       .  A
C1955      H2361   1.078       .  S
C1956      O2362   1.366       .  S
O1958      H1962   0.993       .  S
H1959      C2357   1.078       .  S
O1960      C2358   1.366       .  S
O1960      H1961   0.992       .  S
C1963      C1964   1.415       .  A
C1964      C1965   1.422       .  A
C1964      H1969   1.077       .  S
C1965      C1966   1.410       .  A
C1965      O1970   1.369       .  S
C1967      C1968   1.398       .  A
C1967      H1971   1.083       .  S
C1968      O1972   1.374       .  S
O1970      H2778   0.987       .  S
O1972      H1973   0.992       .  S
H1974      O2774   0.987       .  S
C1975      C1980   1.393       .  A
C1976      C1977   1.420       .  A
C1976      H1981   1.083       .  S
C1977      O1982   1.374       .  S
C1978      C1979   1.418       .  A
C1979      C1980   1.371       .  A
C1979      H1983   1.078       .  S
C1980      O1984   1.374       .  S
O1982      H1986   0.992       .  S
O1984      H1985   0.992       .  S
C1987      C1988   1.413       .  A
C1987      C1992   1.436       .  A
C1988      C1989   1.386       .  A
C1988      H1993   1.076       .  S
C1989      C1990   1.404       .  A
C1989      O1994   1.375       .  S
C1990      C1991   1.391       .  A
C1991      C1992   1.404       .  A
C1991      H1995   1.084       .  S
C1992      O1996   1.373       .  S
O1994      H1998   0.992       .  S
O1996      H1997   0.992   1_655  S
C1999      C2000   1.421       .  A
C1999      C2004   1.415       .  A
C2000      C2001   1.400       .  A
C2000      H2005   1.084       .  S
C2001      C2002   1.400       .  A
C2001      O2006   1.371       .  S
C2002      C2003   1.403       .  A
C2003      C2004   1.403       .  A
C2003      H2007   1.085       .  S
C2004      O2008   1.371       .  S
O2006      H2010   0.992       .  S
O2008      H2009   0.992       .  S
C2011      C2389   1.566   1_455  S
O2012     Zr2048   2.473       .  S
O2013     Zr2047   2.512       .  S
O2013      C2024   1.305       .  A
O2014     Zr2020   2.519       .  S
O2014      C2025   1.307       .  A
O2015     Zr2824   2.490       .  S
O2015      C2026   1.302       .  A
O2016     Zr2050   2.420       .  S
O2016      C2026   1.290       .  A
O2017      C2025   1.281       .  A
O2018     Zr2824   2.420       .  S
O2018      C2024   1.289       .  A
O2019     Zr2020   2.373       .  S
O2019      C2023   1.283       .  A
Zr2020     O2819   2.490   1_545  S
Zr2020     O2822   2.420       .  S
Zr2020     O2825   2.338   1_545  S
Zr2020     O2022   2.340       .  S
Zr2020     O2834   2.350   1_545  S
Zr2020     O2028   2.330       .  S
O2021     Zr2824   2.338       .  S
O2021     Zr2047   2.326       .  S
O2021     Zr2050   2.344       .  S
C2023      C2377   1.461       .  S
C2024      C2272   1.502       .  S
C2025      C2341   1.480       .  S
C2026      C2260   1.504       .  S
H2027      O2028   0.965       .  S
O2028     Zr2851   2.330   1_545  S
O2030     Zr2824   2.350       .  S
O2030     Zr2050   2.331       .  S
O2031      C2054   1.299       .  A
O2032     Zr2048   2.497       .  S
O2033     Zr2049   2.500       .  S
O2033      C2056   1.302       .  A
O2034     Zr2050   2.501       .  S
O2034      C2057   1.301       .  A
O2035      C2058   1.300       .  A
O2036     Zr2049   2.479       .  S
O2037     Zr2855   2.515   1_545  S
O2038     Zr2051   2.505       .  S
O2038      C2061   1.304       .  A
O2039     Zr2049   2.412       .  S
O2039      C2060   1.289       .  A
O2041      C2860   1.272       .  A
O2042     Zr2048   2.388       .  S
O2042      C2059   1.284       .  A
O2043     Zr2852   2.337       .  S
O2043      C2058   1.274       .  A
O2044     Zr2047   2.370       .  S
O2044      C2057   1.282       .  A
O2045      C2054   1.276       .  A
O2046     Zr2051   2.405       .  S
O2046      C2859   1.286       .  A
Zr2047     O2832   2.330       .  S
Zr2047     O2065   2.330       .  S
Zr2048     O2847   2.336   1_545  S
Zr2048     O2856   2.326   1_545  S
Zr2049     O2857   2.324       .  S
Zr2050     O2065   2.341       .  S
Zr2051     O2841   2.515       .  S
Zr2051     O2867   2.338       .  S
O2052     Zr2852   2.326       .  S
O2053     Zr2853   2.324       .  S
C2054      C2245   1.463       .  S
C2055      O2850   1.286   1_545  A
C2055      C2305   1.491       .  S
C2056      O2845   1.272       .  A
C2056      C2293   1.452       .  S
C2057      C2353   1.484       .  S
C2058      C2281   1.454       .  S
C2059      C2320   1.482       .  S
C2060      C2368   1.513       .  S
C2061      C2329   1.468       .  S
H2062      O2063   0.966       .  S
O2063     Zr2855   2.338   1_545  S
C2066      C3025   1.571   1_545  S
C2066      C2233   1.561       .  S
C2066      C2296   1.562       .  S
C2066      C2308   1.566       .  S
O2067     Zr2103   2.499       .  S
O2067      C2078   1.303       .  A
O2068     Zr2102   2.501       .  S
O2068      C2079   1.304       .  A
O2069     Zr2075   2.495       .  S
O2069      C2080   1.299       .  A
O2070     Zr2075   2.475       .  S
O2070      C2081   1.297       .  A
O2071     Zr2105   2.336       .  S
O2071      C2081   1.274       .  A
O2072     Zr2104   2.358       .  S
O2072      C2080   1.277       .  A
O2073     Zr2075   2.415       .  S
O2073      C2079   1.289       .  A
O2074     Zr2075   2.359       .  S
O2074      C2078   1.278       .  A
Zr2075     O2076   2.326       .  S
Zr2075     O2077   2.336       .  S
Zr2075     O2085   2.355       .  S
Zr2075     O2083   2.345       .  S
O2076     Zr2102   2.345       .  S
O2076     Zr2105   2.348       .  S
O2077     Zr2103   2.346       .  S
O2077     Zr2104   2.323       .  S
C2078      C2404   1.462       .  S
C2079      C2140   1.508       .  S
C2080      C2209   1.488       .  S
C2081      C2236   1.444       .  S
H2082      O2083   0.966       .  S
O2083     Zr2102   2.342       .  S
O2083     Zr2104   2.326       .  S
H2084      O2085   0.966       .  S
O2085     Zr2103   2.330       .  S
O2085     Zr2105   2.326       .  S
O2086     Zr2102   2.530       .  S
O2086      C2109   1.309       .  A
O2087     Zr2103   2.511       .  S
O2087      C2110   1.305       .  A
O2088     Zr2104   2.490       .  S
O2088      C2111   1.301       .  A
O2089     Zr2105   2.468       .  S
O2089      C2112   1.295       .  A
O2090     Zr2105   2.503       .  S
O2090      C2113   1.303       .  A
O2091     Zr2104   2.466       .  S
O2091      C2114   1.296       .  A
O2092     Zr2106   2.497       .  S
O2092      C2115   1.301       .  A
O2093     Zr2106   2.455       .  S
O2093      C2116   1.294       .  A
O2094     Zr2104   2.329       .  S
O2094      C2115   1.272       .  A
O2095     Zr2105   2.388       .  S
O2095      C2116   1.284       .  A
O2096     Zr2102   2.429       .  S
O2096      C2111   1.291       .  A
O2097     Zr2103   2.353       .  S
O2097      C2114   1.279       .  A
O2098     Zr2103   2.412       .  S
O2098      C2113   1.287       .  A
O2099     Zr2102   2.382       .  S
O2099      C2112   1.284       .  A
O2100     Zr2106   2.376       .  S
O2100      C2109   1.282       .  A
O2101     Zr2106   2.419       .  S
O2101      C2110   1.289       .  A
Zr2102     O2108   2.337       .  S
Zr2102     O2120   2.348       .  S
Zr2103     O2107   2.339       .  S
Zr2103     O2118   2.346       .  S
Zr2104     O2108   2.321       .  S
Zr2104     O2118   2.335       .  S
Zr2105     O2107   2.328       .  S
Zr2105     O2120   2.337       .  S
Zr2106     O2107   2.353       .  S
Zr2106     O2108   2.339       .  S
Zr2106     O2120   2.344       .  S
Zr2106     O2118   2.310       .  S
C2109      C2200   1.490       .  S
C2110      C2152   1.513       .  S
C2111      C2224   1.497       .  S
C2112      C2161   1.462       .  S
C2113      C2185   1.497       .  S
C2114      C2128   1.446       .  S
C2115      C2173   1.455       .  S
C2116      C2392   1.466       .  S
H2117      O2118   0.965       .  S
H2119      O2120   0.965       .  S
C2121      C2125   1.554       .  S
C2121      C2344   1.577       .  S
C2121      C2356   1.568       .  S
C2122      C2212   1.556       .  S
C2122      C2248   1.559       .  S
C2122      C2257   1.578       .  S
C2123      C2149   1.583       .  S
C2123      C2317   1.584       .  S
C2123      C2332   1.569       .  S
C2124      C2176   1.563       .  S
C2124      C2992   1.569       .  S
C2124      C2269   1.572       .  S
C2124      C2284   1.563       .  S
C2125      C2126   1.404       .  A
C2125      C2130   1.434       .  A
C2126      C2127   1.391       .  A
C2126      H2131   1.078       .  S
C2127      C2128   1.408       .  A
C2127      O2132   1.372       .  S
C2128      C2129   1.385       .  A
C2129      C2130   1.392       .  A
C2129      H2133   1.085       .  S
C2130      O2134   1.372       .  S
O2132      H2136   0.991       .  S
O2134      H2135   0.992       .  S
C2137      C2138   1.425       .  A
C2137      C2142   1.419       .  A
C2138      C2139   1.411       .  A
C2139      C2140   1.407       .  A
C2139      O2144   1.371       .  S
C2140      C2141   1.410       .  A
C2141      C2142   1.402       .  A
C2141      H2145   1.083       .  S
C2142      O2146   1.372       .  S
O2144      H2148   0.992       .  S
O2146      H2147   0.992       .  S
C2149      C2150   1.413       .  A
C2149      C2154   1.429       .  A
C2150      C2151   1.396       .  A
C2150      H2155   1.084       .  S
C2151      C2152   1.417       .  A
C2151      O2156   1.372       .  S
C2152      C2153   1.409       .  A
C2153      C2154   1.425       .  A
C2153      H2157   1.083       .  S
C2154      O2158   1.373       .  S
O2156      H2160   0.992       .  S
O2158      H2159   0.992       .  S
C2161      C2162   1.403       .  A
C2161      C2166   1.393       .  A
C2162      C2163   1.421       .  A
C2162      H2167   1.083       .  S
C2163      C2164   1.427       .  A
C2163      O2168   1.376       .  S
C2164      C2165   1.419       .  A
C2165      C2166   1.374       .  A
C2165      H2169   1.078       .  S
C2166      O2170   1.372       .  S
O2168      H2172   0.992       .  S
O2170      H2171   0.992       .  S
C2173      C2174   1.397       .  A
C2173      C2178   1.399       .  A
C2174      C2175   1.394       .  A
C2174      H2179   1.086       .  S
C2175      C2176   1.430       .  A
C2175      O2180   1.371       .  S
C2176      C2177   1.423       .  A
C2177      C2178   1.401       .  A
C2177      H2181   1.079       .  S
C2178      O2182   1.371       .  S
O2180      H2184   0.992       .  S
O2182      H2183   0.992       .  S
C2185      C2186   1.406       .  A
C2185      C2190   1.410       .  A
C2186      C2187   1.417       .  A
C2186      H2191   1.083       .  S
C2187      C2188   1.426       .  A
C2187      O2192   1.371       .  S
C2188      C2928   1.569   1_545  S
C2188      C2189   1.412       .  A
C2189      C2190   1.400       .  A
C2189      H2193   1.082       .  S
C2190      O2194   1.372       .  S
O2192      H2196   0.992       .  S
O2194      H2195   0.992       .  S
C2197      C2198   1.419       .  A
C2197      C2202   1.428       .  A
C2198      C2199   1.393       .  A
C2198      H2203   1.079       .  S
C2199      C2200   1.404       .  A
C2199      O2204   1.372       .  S
C2200      C2201   1.405       .  A
C2201      C2202   1.423       .  A
C2201      H2205   1.078       .  S
C2202      O2206   1.375       .  S
O2204      H2208   0.992       .  S
O2206      H2207   0.992       .  S
C2209      C2210   1.408       .  A
C2209      C2214   1.410       .  A
C2210      C2211   1.427       .  A
C2210      H2215   1.078       .  S
C2211      C2212   1.419       .  A
C2211      O2216   1.374       .  S
C2212      C2213   1.409       .  A
C2213      C2214   1.372       .  A
C2213      H2217   1.082       .  S
C2214      O2218   1.376       .  S
O2216      H2220   0.992       .  S
O2218      H2219   0.993       .  S
C2221      C2870   1.571       .  S
C2221      C2222   1.419       .  A
C2221      C2226   1.422       .  A
C2222      C2223   1.416       .  A
C2222      H2227   1.080       .  S
C2223      C2224   1.410       .  A
C2223      O2228   1.371       .  S
C2224      C2225   1.401       .  A
C2225      C2226   1.402       .  A
C2225      H2229   1.084       .  S
C2226      O2230   1.372       .  S
O2228      H2232   0.992       .  S
O2230      H2231   0.992       .  S
C2233      C2234   1.420       .  A
C2233      C2238   1.435       .  A
C2234      C2235   1.398       .  A
C2234      H2239   1.076       .  S
C2235      C2236   1.400       .  A
C2235      O2240   1.372       .  S
C2236      C2237   1.390       .  A
C2237      C2238   1.393       .  A
C2237      H2241   1.086       .  S
C2238      O2242   1.376       .  S
O2240      H2244   0.991       .  S
O2242      H2243   0.993       .  S
C2245      C2246   1.408       .  A
C2245      C2250   1.389       .  A
C2246      C2247   1.389       .  A
C2246      H2251   1.081       .  S
C2247      C2248   1.407       .  A
C2247      O2252   1.372       .  S
C2248      C2249   1.433       .  A
C2249      C2250   1.393       .  A
C2249      H2253   1.080       .  S
C2250      O2254   1.372       .  S
O2252      H2256   0.989       .  S
O2254      H2255   0.992       .  S
C2257      C2258   1.420       .  A
C2257      C2262   1.417       .  A
C2258      C2259   1.411       .  A
C2258      H2263   1.080       .  S
C2259      C2260   1.410       .  A
C2259      O2264   1.371       .  S
C2260      C2261   1.409       .  A
C2261      C2262   1.401       .  A
C2261      H2265   1.083       .  S
C2262      O2266   1.374       .  S
O2264      H2268   0.992       .  S
C2269      C2270   1.413       .  A
C2269      C2274   1.427       .  A
C2270      C2271   1.403       .  A
C2270      H3079   1.082       .  S
C2271      C2272   1.410       .  A
C2271      O2276   1.373       .  S
C2272      C2273   1.407       .  A
C2273      C2274   1.420       .  A
C2273      H2277   1.083       .  S
C2274      O2278   1.371       .  S
H2275      C3074   1.082       .  S
O2276      H3084   0.992       .  S
O2278      H2279   0.992       .  S
H2280      O3080   0.992       .  S
C2281      C2282   1.395       .  A
C2281      C2286   1.400       .  A
C2282      C3087   1.391       .  A
C2282      H3091   1.086       .  S
C2283      C3086   1.391   1_545  A
C2283      C3088   1.432   1_545  A
C2283      O2288   1.371       .  S
C2284      C3087   1.432       .  A
C2284      C2285   1.423       .  A
C2285      C2286   1.403       .  A
C2285      H2289   1.080       .  S
C2286      O2290   1.371       .  S
H2287      C3086   1.086       .  S
O2288      H2292   0.992       .  S
O2290      H2291   0.992       .  S
C2293      C2294   1.394       .  A
C2293      C2298   1.403       .  A
C2294      C2295   1.393   1_545  A
C2294      H2299   1.085       .  S
C2295      C2296   1.432   1_565  A
C2295      O2300   1.371       .  S
C2296      C2297   1.420       .  A
C2297      C2298   1.402       .  A
C2297      H2301   1.075       .  S
O2300      H2304   0.992       .  S
O2302      H2303   0.991       .  S
C2305      C2306   1.401       .  A
C2305      C2310   1.409       .  A
C2306      C2307   1.399       .  A
C2306      H2311   1.084       .  S
C2307      C2308   1.421       .  A
C2307      O2312   1.372       .  S
C2308      C2309   1.418   1_545  A
C2309      C2310   1.414   1_565  A
C2309      H2313   1.080       .  S
O2312      H2316   0.992   1_545  S
O2314      H2315   0.992   1_565  S
C2317      C2318   1.417       .  A
C2318      C2319   1.391       .  A
C2318      H2323   1.075       .  S
C2319      C2320   1.405       .  A
C2319      O2324   1.375       .  S
C2321      C2322   1.411       .  A
C2321      H2325   1.084       .  S
C2322      O2326   1.372       .  S
O2324      H2328   0.992       .  S
O2326      H2327   0.993       .  S
C2329      C2334   1.404       .  A
C2330      C2331   1.404   1_554  A
C2330      H2335   1.084       .  S
C2331      C2332   1.430       .  A
C2331      O2336   1.371       .  S
C2333      C2334   1.403       .  A
C2333      H2337   1.077       .  S
C2334      O2338   1.371       .  S
O2336      H2340   0.992       .  S
O2338      H2339   0.992       .  S
C2341      C2342   1.398       .  A
C2341      C2346   1.407       .  A
C2342      C2343   1.407       .  A
C2342      H2347   1.084       .  S
C2343      C2344   1.430       .  A
C2344      C2345   1.416       .  A
C2345      C2346   1.408       .  A
C2345      H2349   1.072       .  S
C2346      O2350   1.374       .  S
O2348      H2352   0.992       .  S
O2350      H2351   0.992       .  S
C2353      C2354   1.397       .  A
C2353      C2358   1.406       .  A
C2354      C2355   1.381       .  A
C2354      H2359   1.085       .  S
C2355      C2356   1.425       .  A
C2355      O2360   1.372       .  S
C2356      C2357   1.418       .  A
C2357      C2358   1.415       .  A
O2360      H2364   0.993       .  S
O2362      H2363   0.992       .  S
C2365      C2366   1.415       .  A
C2366      C2367   1.422       .  A
C2366      H2371   1.077       .  S
C2367      C2368   1.410       .  A
C2367      O2372   1.369       .  S
C2369      C2370   1.398       .  A
C2369      H2373   1.083       .  S
C2370      O2374   1.374       .  S
O2372      H3180   0.987       .  S
O2374      H2375   0.992       .  S
H2376      O3176   0.987       .  S
C2377      C2382   1.392       .  A
C2378      C2379   1.420       .  A
C2378      H2383   1.083       .  S
C2379      O2384   1.374       .  S
C2380      C2381   1.418       .  A
C2381      C2382   1.371       .  A
C2381      H2385   1.078       .  S
C2382      O2386   1.374       .  S
O2384      H2388   0.992       .  S
O2386      H2387   0.992       .  S
C2389      C2390   1.413       .  A
C2389      C2394   1.436       .  A
C2390      C2391   1.386       .  A
C2390      H2395   1.076       .  S
C2391      C2392   1.404       .  A
C2391      O2396   1.375       .  S
C2392      C2393   1.391       .  A
C2393      C2394   1.404       .  A
C2393      H2397   1.084       .  S
C2394      O2398   1.373       .  S
O2396      H2400   0.992       .  S
O2398      H2399   0.992   1_655  S
C2401      C2402   1.421       .  A
C2401      C2406   1.415       .  A
C2402      C2403   1.400       .  A
C2402      H2407   1.084       .  S
C2403      C2404   1.400       .  A
C2403      O2408   1.371       .  S
C2404      C2405   1.403       .  A
C2405      C2406   1.403       .  A
C2405      H2409   1.085       .  S
C2406      O2410   1.371       .  S
O2408      H2412   0.992       .  S
O2410      H2411   0.992       .  S
C2413      C2791   1.566   1_455  S
O2414     Zr2450   2.473       .  S
O2415     Zr2449   2.512       .  S
O2415      C2426   1.305       .  A
O2416     Zr2422   2.519       .  S
O2416      C2427   1.307       .  A
O2417      C2428   1.302       .  A
O2418     Zr2452   2.420       .  S
O2418      C2428   1.290       .  A
O2419     Zr2853   2.380       .  S
O2419      C2427   1.281       .  A
O2420      C2426   1.289   1_545  A
O2421     Zr2422   2.374       .  S
O2421      C2425   1.283       .  A
Zr2422     O2424   2.340       .  S
Zr2422     O2430   2.330       .  S
O2423     Zr2449   2.326       .  S
O2423     Zr2452   2.344       .  S
O2424     Zr2853   2.340       .  S
C2425      C2779   1.461       .  S
C2426      C2674   1.502       .  S
C2427      C2743   1.480       .  S
C2428      C2662   1.504       .  S
H2429      O2430   0.965       .  S
O2430     Zr2853   2.344       .  S
O2432     Zr2452   2.331       .  S
O2433     Zr2851   2.482   1_554  S
O2433      C2456   1.299       .  A
O2434     Zr2450   2.496       .  S
O2434      C2859   1.301       .  A
O2435     Zr2451   2.500       .  S
O2435      C2458   1.302       .  A
O2436     Zr2452   2.501       .  S
O2436      C2459   1.301       .  A
O2437      C2460   1.300       .  A
O2438     Zr2451   2.479       .  S
O2440     Zr2453   2.505       .  S
O2440      C2463   1.304       .  A
O2441     Zr2451   2.412       .  S
O2441      C2462   1.289       .  A
O2442      C2865   1.280       .  A
O2443     Zr2851   2.325   1_544  S
O2444     Zr2450   2.388       .  S
O2444      C2461   1.284       .  A
O2445      C2460   1.274       .  A
O2446     Zr2449   2.370       .  S
O2446      C2459   1.282       .  A
O2447      C2456   1.276       .  A
O2448     Zr2453   2.405       .  S
Zr2449     O2835   2.482       .  S
Zr2449     O2845   2.325   1_565  S
Zr2449     O2857   2.338   1_565  S
Zr2449     O2467   2.330       .  S
Zr2450     O2867   2.331       .  S
Zr2451     O2821   2.380   1_554  S
Zr2451     O2826   2.340   1_554  S
Zr2451     O2832   2.344   1_554  S
Zr2452     O2467   2.341       .  S
Zr2453     O2856   2.325   1_554  S
O2454     Zr2855   2.325       .  S
O2455     Zr2851   2.338   1_544  S
C2456      C2647   1.463       .  S
C2457      O2836   1.301   1_554  A
C2457      C2707   1.491       .  S
C2458      C2695   1.452       .  S
C2459      C2755   1.484       .  S
C2460      C2683   1.454       .  S
C2461      C2722   1.482       .  S
C2462      C2770   1.513       .  S
C2463      O2844   1.280   1_554  A
C2463      C2731   1.468       .  S
H2464      O2465   0.966       .  S
O2465     Zr2852   2.331   1_554  S
H2466      O2869   0.965   1_554  S
O2467      H2868   0.965       .  S
C2468      C2635   1.561       .  S
C2468      C2698   1.562       .  S
C2468      C2710   1.566       .  S
O2469     Zr2505   2.499       .  S
O2469      C2480   1.303       .  A
O2470     Zr2504   2.501       .  S
O2470      C2481   1.304       .  A
O2471     Zr2477   2.495       .  S
O2471      C2482   1.299       .  A
O2472     Zr2477   2.475       .  S
O2472      C2483   1.297       .  A
O2473     Zr2507   2.335       .  S
O2473      C2483   1.274       .  A
O2474     Zr2506   2.358       .  S
O2474      C2482   1.277       .  A
O2475     Zr2477   2.415       .  S
O2475      C2481   1.289       .  A
O2476     Zr2477   2.359       .  S
O2476      C2480   1.278       .  A
Zr2477     O2478   2.326       .  S
Zr2477     O2479   2.336       .  S
Zr2477     O2487   2.355       .  S
Zr2477     O2485   2.345       .  S
O2478     Zr2504   2.345       .  S
O2478     Zr2507   2.348       .  S
O2479     Zr2505   2.346       .  S
O2479     Zr2506   2.323       .  S
C2480      C2806   1.462       .  S
C2481      C2542   1.508       .  S
C2482      C2611   1.488       .  S
C2483      C2638   1.444       .  S
H2484      O2485   0.966       .  S
O2485     Zr2504   2.342       .  S
O2485     Zr2506   2.326       .  S
H2486      O2487   0.966       .  S
O2487     Zr2505   2.330       .  S
O2487     Zr2507   2.326       .  S
O2488     Zr2504   2.530       .  S
O2488      C2511   1.309       .  A
O2489     Zr2505   2.511       .  S
O2489      C2512   1.305       .  A
O2490     Zr2506   2.490       .  S
O2490      C2513   1.301       .  A
O2491     Zr2507   2.468       .  S
O2491      C2514   1.295       .  A
O2492     Zr2507   2.502       .  S
O2492      C2515   1.303       .  A
O2493     Zr2506   2.466       .  S
O2493      C2516   1.296       .  A
O2494     Zr2508   2.497       .  S
O2494      C2517   1.301       .  A
O2495     Zr2508   2.455       .  S
O2495      C2518   1.294       .  A
O2496     Zr2506   2.329       .  S
O2496      C2517   1.272       .  A
O2497     Zr2507   2.388       .  S
O2497      C2518   1.284       .  A
O2498     Zr2504   2.429       .  S
O2498      C2513   1.291       .  A
O2499     Zr2505   2.353       .  S
O2499      C2516   1.279       .  A
O2500     Zr2505   2.412       .  S
O2500      C2515   1.287       .  A
O2501     Zr2504   2.382       .  S
O2501      C2514   1.284       .  A
O2502     Zr2508   2.376       .  S
O2502      C2511   1.282       .  A
O2503     Zr2508   2.419       .  S
O2503      C2512   1.289       .  A
Zr2504     O2510   2.337       .  S
Zr2504     O2522   2.348       .  S
Zr2505     O2509   2.339       .  S
Zr2505     O2520   2.346       .  S
Zr2506     O2510   2.321       .  S
Zr2506     O2520   2.335       .  S
Zr2507     O2509   2.328       .  S
Zr2507     O2522   2.337       .  S
Zr2508     O2509   2.353       .  S
Zr2508     O2510   2.339       .  S
Zr2508     O2522   2.344       .  S
Zr2508     O2520   2.310       .  S
C2511      C2602   1.490       .  S
C2512      C2554   1.513       .  S
C2513      C2626   1.497       .  S
C2514      C2563   1.462       .  S
C2515      C2587   1.496       .  S
C2516      C2530   1.446       .  S
C2517      C2575   1.455       .  S
C2518      C2794   1.466       .  S
H2519      O2520   0.965       .  S
H2521      O2522   0.965       .  S
C2523      C2527   1.554       .  S
C2523      C2941   1.581       .  S
C2523      C2746   1.577       .  S
C2523      C2758   1.568       .  S
C2524      C2614   1.556       .  S
C2524      C2650   1.559       .  S
C2524      C2659   1.578       .  S
C2525      C2551   1.583       .  S
C2525      C2968   1.561       .  S
C2525      C2719   1.584       .  S
C2525      C2734   1.569       .  S
C2526      C2578   1.564       .  S
C2526      C2671   1.572       .  S
C2526      C2686   1.563       .  S
C2527      C2528   1.404       .  A
C2527      C2532   1.434       .  A
C2528      C2529   1.391       .  A
C2528      H2533   1.078       .  S
C2529      C2530   1.408       .  A
C2529      O2534   1.372       .  S
C2530      C2531   1.385       .  A
C2531      C2532   1.392       .  A
C2531      H2535   1.085       .  S
C2532      O2536   1.372       .  S
O2534      H2538   0.991       .  S
O2536      H2537   0.992       .  S
C2539      C2925   1.581       .  S
C2539      C2540   1.425   1_556  A
C2539      C2544   1.419   1_556  A
C2540      C2541   1.411       .  A
C2540      H2947   1.075   1_554  S
C2541      C2542   1.407       .  A
C2541      O2546   1.371       .  S
C2542      C2543   1.410       .  A
C2543      C2544   1.402       .  A
C2543      H2547   1.083       .  S
C2544      O2548   1.372       .  S
H2545      C2942   1.075       .  S
O2546      H2550   0.992       .  S
O2548      H2549   0.992       .  S
C2551      C2552   1.413       .  A
C2551      C2556   1.429       .  A
C2552      C2553   1.396       .  A
C2552      H2557   1.084       .  S
C2553      C2554   1.417       .  A
C2553      O2558   1.372       .  S
C2554      C2555   1.409       .  A
C2555      C2556   1.425       .  A
C2555      H2559   1.083       .  S
C2556      O2560   1.373       .  S
O2558      H2562   0.992       .  S
O2560      H2561   0.992       .  S
C2563      C2564   1.403       .  A
C2563      C2568   1.393       .  A
C2564      C2565   1.421       .  A
C2564      H2569   1.083       .  S
C2565      C2566   1.427       .  A
C2565      O2570   1.376   1_554  S
C2566      C2927   1.561   1_554  S
C2566      C2567   1.419       .  A
C2567      C2568   1.374       .  A
C2567      H2571   1.078       .  S
C2568      O2572   1.372       .  S
O2570      H2574   0.992       .  S
O2572      H2573   0.992       .  S
C2575      C2576   1.397       .  A
C2575      C2580   1.399       .  A
C2576      C2577   1.394       .  A
C2576      H2581   1.086       .  S
C2577      C2578   1.430       .  A
C2577      O2582   1.371       .  S
C2578      C2579   1.423       .  A
C2579      C2580   1.401       .  A
C2579      H2583   1.079       .  S
C2580      O2584   1.371       .  S
O2582      H2586   0.992       .  S
O2584      H2585   0.992       .  S
C2587      C2588   1.406       .  A
C2587      C2592   1.410       .  A
C2588      C2589   1.417       .  A
C2588      H2593   1.083       .  S
C2589      C2590   1.426       .  A
C2589      O2594   1.371       .  S
C2590      C2591   1.412       .  A
C2591      C2592   1.400       .  A
C2591      H2595   1.082       .  S
C2592      O2596   1.372       .  S
O2594      H2598   0.992       .  S
O2596      H2597   0.992       .  S
C2599      C2600   1.419       .  A
C2599      C2604   1.428       .  A
C2600      C2601   1.393       .  A
C2600      H2605   1.079       .  S
C2601      C2602   1.404       .  A
C2601      O2606   1.372       .  S
C2602      C2603   1.405       .  A
C2603      C2604   1.423       .  A
C2603      H2607   1.078       .  S
C2604      O2608   1.375       .  S
O2606      H2610   0.992       .  S
O2608      H2609   0.992       .  S
C2611      C2612   1.408       .  A
C2611      C2616   1.410       .  A
C2612      C2613   1.427       .  A
C2612      H2617   1.078       .  S
C2613      C2614   1.419       .  A
C2613      O2618   1.374       .  S
C2614      C2615   1.409       .  A
C2615      C2616   1.373       .  A
C2615      H2619   1.082       .  S
C2616      O2620   1.376       .  S
O2618      H2622   0.992       .  S
O2620      H2621   0.993       .  S
C2623      C2624   1.419       .  A
C2623      C2628   1.422       .  A
C2624      C2625   1.416       .  A
C2624      H2629   1.080       .  S
C2625      C2626   1.410       .  A
C2625      O2630   1.371       .  S
C2626      C2627   1.401       .  A
C2627      C2628   1.402       .  A
C2627      H2631   1.084       .  S
C2628      O2632   1.372       .  S
O2630      H2634   0.992       .  S
O2632      H2633   0.992       .  S
C2635      C2636   1.420       .  A
C2635      C2640   1.435       .  A
C2636      C2637   1.398       .  A
C2636      H2641   1.076       .  S
C2637      C2638   1.400       .  A
C2637      O2642   1.372       .  S
C2638      C2639   1.390       .  A
C2639      C2640   1.393       .  A
C2639      H2643   1.086       .  S
C2640      O2644   1.376       .  S
O2642      H2646   0.991       .  S
O2644      H2645   0.993       .  S
C2647      C2648   1.408       .  A
C2647      C2652   1.389       .  A
C2648      C2649   1.390       .  A
C2648      H2653   1.081       .  S
C2649      C2650   1.407       .  A
C2649      O2654   1.372       .  S
C2650      C2651   1.433       .  A
C2651      C2652   1.393       .  A
C2651      H2655   1.080       .  S
C2652      O2656   1.372       .  S
O2654      H2658   0.989       .  S
O2656      H2657   0.992       .  S
C2659      C2660   1.420       .  A
C2659      C2664   1.417       .  A
C2660      C2661   1.411       .  A
C2660      H2665   1.080       .  S
C2661      C2662   1.410       .  A
C2661      O2666   1.371       .  S
C2662      C2663   1.409       .  A
C2663      C2664   1.401       .  A
C2663      H2667   1.083       .  S
C2664      O2668   1.374       .  S
O2666      H2670   0.992       .  S
C2671      C2672   1.413       .  A
C2671      C2676   1.427       .  A
C2672      C2673   1.403       .  A
C2673      C2674   1.410       .  A
C2673      O2678   1.373       .  S
C2674      C2675   1.407       .  A
C2675      C2676   1.420       .  A
C2675      H2679   1.083   1_565  S
C2676      O2680   1.371   1_565  S
O2680      H2681   0.992       .  S
C2683      C2684   1.395       .  A
C2683      C2688   1.400       .  A
C2685      O2690   1.371       .  S
C2686      C2687   1.423       .  A
C2687      C2688   1.403       .  A
C2687      H2691   1.080       .  S
C2688      O2692   1.371       .  S
O2690      H2694   0.992       .  S
O2692      H2693   0.992       .  S
C2695      C2696   1.394       .  A
C2695      C2700   1.403       .  A
C2696      C2697   1.393       .  A
C2696      H2701   1.085       .  S
C2697      C2698   1.432       .  A
C2697      O2702   1.371       .  S
C2698      C2699   1.420       .  A
C2699      C2700   1.402       .  A
C2699      H2703   1.075       .  S
C2700      O3106   1.372       .  S
O2702      H2706   0.992       .  S
O2704      C3102   1.372       .  S
O2704      H2705   0.991       .  S
C2707      C2708   1.401       .  A
C2707      C2712   1.408       .  A
C2708      C2709   1.399       .  A
C2708      H2713   1.084       .  S
C2709      C2710   1.421       .  A
C2709      O2714   1.372       .  S
C2710      C2711   1.418       .  A
C2711      C2712   1.414       .  A
C2711      H2715   1.080       .  S
C2712      O3118   1.370   1_554  S
O2714      H2718   0.992       .  S
O2716      C3114   1.370       .  S
O2716      H2717   0.992       .  S
C2719      C2720   1.417       .  A
C2719      C3126   1.439       .  A
C2720      C2721   1.391       .  A
C2720      H2725   1.075       .  S
C2721      C2722   1.405       .  A
C2721      O2726   1.375       .  S
C2722      C3125   1.394       .  A
C2723      C3124   1.394   1_554  A
C2723      C2724   1.411       .  A
C2723      H2727   1.084       .  S
C2724      C3121   1.439   1_554  A
C2724      O2728   1.372       .  S
O2726      H2730   0.992       .  S
O2728      H2729   0.993       .  S
C2731      C3134   1.395       .  A
C2731      C2736   1.405       .  A
C2732      C3133   1.395       .  A
C2732      C2733   1.404       .  A
C2732      H2737   1.084       .  S
C2733      C2734   1.430       .  A
C2733      O2738   1.371       .  S
C2734      C3137   1.410       .  A
C2735      C3136   1.410   1_554  A
C2735      C2736   1.403       .  A
C2735      H2739   1.077   1_554  S
C2736      O2740   1.371       .  S
O2738      H2742   0.992       .  S
O2740      H2741   0.992       .  S
C2743      C2744   1.398       .  A
C2743      C2748   1.407       .  A
C2744      C2745   1.407       .  A
C2744      H2749   1.084       .  S
C2745      C2746   1.430       .  A
C2745      O3152   1.372       .  S
C2746      C2747   1.416       .  A
C2747      C2748   1.408       .  A
C2747      H2751   1.072       .  S
C2748      O2752   1.374       .  S
O2750      C3147   1.372       .  S
O2750      H2754   0.992       .  S
O2752      H2753   0.992       .  S
C2755      C2756   1.397       .  A
C2755      C2760   1.406       .  A
C2756      C2757   1.381       .  A
C2756      H2761   1.085       .  S
C2757      C2758   1.425       .  A
C2757      O2762   1.372       .  S
C2758      C2759   1.418       .  A
C2759      C2760   1.415       .  A
C2759      H3165   1.078       .  S
C2760      O3166   1.366       .  S
O2762      H2766   0.993       .  S
H2763      C3161   1.078       .  S
O2764      C3162   1.366       .  S
O2764      H2765   0.992       .  S
C2767      C2768   1.415       .  A
C2768      C2769   1.422       .  A
C2768      H2773   1.077       .  S
C2769      C2770   1.410       .  A
C2769      O2774   1.369       .  S
C2771      C2772   1.398       .  A
C2771      H2775   1.083       .  S
C2772      O2776   1.374       .  S
O2776      H2777   0.992       .  S
C2779      C2784   1.392       .  A
C2780      C2781   1.420       .  A
C2780      H2785   1.083       .  S
C2781      O2786   1.374       .  S
C2782      C2783   1.418       .  A
C2783      C2784   1.371       .  A
C2783      H2787   1.078       .  S
C2784      O2788   1.374       .  S
O2786      H2790   0.992       .  S
O2788      H2789   0.992       .  S
C2791      C2792   1.413       .  A
C2791      C2796   1.436       .  A
C2792      C2793   1.386       .  A
C2792      H2797   1.076       .  S
C2793      C2794   1.404       .  A
C2793      O2798   1.375       .  S
C2794      C2795   1.391       .  A
C2795      C2796   1.404       .  A
C2795      H2799   1.084       .  S
C2796      O2800   1.373       .  S
O2798      H2802   0.992       .  S
O2800      H2801   0.992   1_655  S
C2803      C2804   1.421       .  A
C2803      C2808   1.415       .  A
C2804      C2805   1.400       .  A
C2804      H2809   1.084       .  S
C2805      C2806   1.400       .  A
C2805      O2810   1.371       .  S
C2806      C2807   1.403       .  A
C2807      C2808   1.403       .  A
C2807      H2811   1.085       .  S
C2808      O2812   1.371       .  S
O2810      H2814   0.992       .  S
O2812      H2813   0.992       .  S
C2815      C3193   1.566   1_455  S
O2816     Zr2852   2.473       .  S
O2817     Zr2851   2.512       .  S
O2817      C2828   1.305       .  A
O2818     Zr2824   2.519       .  S
O2818      C2829   1.307       .  A
O2819      C2830   1.302       .  A
O2820     Zr2854   2.420       .  S
O2820      C2830   1.290       .  A
O2821      C2829   1.281       .  A
O2822      C2828   1.289   1_545  A
O2823     Zr2824   2.374       .  S
O2823      C2827   1.283       .  A
Zr2824     O2826   2.340       .  S
Zr2824     O2832   2.330       .  S
O2825     Zr2851   2.326       .  S
O2825     Zr2854   2.344       .  S
C2827      C3181   1.461       .  S
C2828      C3076   1.502       .  S
C2829      C3145   1.480       .  S
C2830      C3064   1.504       .  S
H2831      O2832   0.965       .  S
O2834     Zr2854   2.331       .  S
O2835      C2858   1.299       .  A
O2836     Zr2852   2.496       .  S
O2837     Zr2853   2.500       .  S
O2837      C2860   1.302       .  A
O2838     Zr2854   2.501       .  S
O2838      C2861   1.301       .  A
O2839      C2862   1.300       .  A
O2840     Zr2853   2.479       .  S
O2842     Zr2855   2.505       .  S
O2842      C2865   1.304       .  A
O2843     Zr2853   2.412       .  S
O2843      C2864   1.289       .  A
O2846     Zr2852   2.388       .  S
O2846      C2863   1.284       .  A
O2847      C2862   1.274       .  A
O2848     Zr2851   2.370       .  S
O2848      C2861   1.282       .  A
O2849      C2858   1.276       .  A
O2850     Zr2855   2.405       .  S
Zr2851     O2869   2.330       .  S
Zr2854     O2869   2.341       .  S
C2858      C3049   1.463       .  S
C2859      C3109   1.491       .  S
C2860      C3097   1.452       .  S
C2861      C3157   1.484       .  S
C2862      C3085   1.454       .  S
C2863      C3124   1.482       .  S
C2864      C3172   1.513       .  S
C2865      C3133   1.468       .  S
H2866      O2867   0.966       .  S
C2870      C3037   1.561       .  S
C2870      C3100   1.562       .  S
C2870      C3112   1.566       .  S
O2871     Zr2907   2.499       .  S
O2871      C2882   1.303       .  A
O2872     Zr2906   2.501       .  S
O2872      C2883   1.304       .  A
O2873     Zr2879   2.495       .  S
O2873      C2884   1.299       .  A
O2874     Zr2879   2.475       .  S
O2874      C2885   1.297       .  A
O2875     Zr2909   2.335       .  S
O2875      C2885   1.274       .  A
O2876     Zr2908   2.358       .  S
O2876      C2884   1.277       .  A
O2877     Zr2879   2.415       .  S
O2877      C2883   1.289       .  A
O2878     Zr2879   2.359       .  S
O2878      C2882   1.278       .  A
Zr2879     O2880   2.326       .  S
Zr2879     O2881   2.336       .  S
Zr2879     O2889   2.355       .  S
Zr2879     O2887   2.345       .  S
O2880     Zr2906   2.345       .  S
O2880     Zr2909   2.348       .  S
O2881     Zr2907   2.346       .  S
O2881     Zr2908   2.323       .  S
C2882      C3208   1.462       .  S
C2883      C2944   1.508       .  S
C2884      C3013   1.488       .  S
C2885      C3040   1.444       .  S
H2886      O2887   0.966       .  S
O2887     Zr2906   2.342       .  S
O2887     Zr2908   2.326       .  S
H2888      O2889   0.966       .  S
O2889     Zr2907   2.330       .  S
O2889     Zr2909   2.326       .  S
O2890     Zr2906   2.530       .  S
O2890      C2913   1.309       .  A
O2891     Zr2907   2.511       .  S
O2891      C2914   1.305       .  A
O2892     Zr2908   2.490       .  S
O2892      C2915   1.301       .  A
O2893     Zr2909   2.468       .  S
O2893      C2916   1.295       .  A
O2894     Zr2909   2.503       .  S
O2894      C2917   1.303       .  A
O2895     Zr2908   2.466       .  S
O2895      C2918   1.296       .  A
O2896     Zr2910   2.497       .  S
O2896      C2919   1.301       .  A
O2897     Zr2910   2.455       .  S
O2897      C2920   1.294       .  A
O2898     Zr2908   2.329       .  S
O2898      C2919   1.272       .  A
O2899     Zr2909   2.388       .  S
O2899      C2920   1.284       .  A
O2900     Zr2906   2.430       .  S
O2900      C2915   1.291       .  A
O2901     Zr2907   2.353       .  S
O2901      C2918   1.279       .  A
O2902     Zr2907   2.412       .  S
O2902      C2917   1.287       .  A
O2903     Zr2906   2.382       .  S
O2903      C2916   1.284       .  A
O2904     Zr2910   2.376       .  S
O2904      C2913   1.282       .  A
O2905     Zr2910   2.419       .  S
O2905      C2914   1.289       .  A
Zr2906     O2912   2.337       .  S
Zr2906     O2924   2.348       .  S
Zr2907     O2911   2.339       .  S
Zr2907     O2922   2.346       .  S
Zr2908     O2912   2.321       .  S
Zr2908     O2922   2.335       .  S
Zr2909     O2911   2.328       .  S
Zr2909     O2924   2.337       .  S
Zr2910     O2911   2.353       .  S
Zr2910     O2912   2.339       .  S
Zr2910     O2924   2.344       .  S
Zr2910     O2922   2.310       .  S
C2913      C3004   1.490       .  S
C2914      C2956   1.513       .  S
C2915      C3028   1.497       .  S
C2916      C2965   1.462       .  S
C2917      C2989   1.497       .  S
C2918      C2932   1.446       .  S
C2919      C2977   1.455       .  S
C2920      C3196   1.466       .  S
H2921      O2922   0.965       .  S
H2923      O2924   0.965       .  S
C2925      C2929   1.554       .  S
C2925      C3148   1.577       .  S
C2925      C3160   1.568       .  S
C2926      C3016   1.556       .  S
C2926      C3052   1.559       .  S
C2926      C3061   1.578       .  S
C2927      C2953   1.583       .  S
C2927      C3121   1.584       .  S
C2927      C3136   1.569       .  S
C2928      C2980   1.564       .  S
C2928      C3073   1.572       .  S
C2928      C3088   1.563       .  S
C2929      C2930   1.404       .  A
C2929      C2934   1.434       .  A
C2930      C2931   1.391       .  A
C2930      H2935   1.078       .  S
C2931      C2932   1.408       .  A
C2931      O2936   1.372       .  S
C2932      C2933   1.385       .  A
C2933      C2934   1.392       .  A
C2933      H2937   1.085       .  S
C2934      O2938   1.372       .  S
O2936      H2940   0.991       .  S
O2938      H2939   0.992       .  S
C2941      C2942   1.425       .  A
C2941      C2946   1.419       .  A
C2942      C2943   1.411       .  A
C2943      C2944   1.407       .  A
C2943      O2948   1.371       .  S
C2944      C2945   1.410       .  A
C2945      C2946   1.402       .  A
C2945      H2949   1.083       .  S
C2946      O2950   1.372       .  S
O2948      H2952   0.992       .  S
O2950      H2951   0.992       .  S
C2953      C2954   1.413       .  A
C2953      C2958   1.429       .  A
C2954      C2955   1.396       .  A
C2954      H2959   1.084       .  S
C2955      C2956   1.417       .  A
C2955      O2960   1.372       .  S
C2956      C2957   1.409       .  A
C2957      C2958   1.425       .  A
C2957      H2961   1.083       .  S
C2958      O2962   1.373       .  S
O2960      H2964   0.992       .  S
O2962      H2963   0.992       .  S
C2965      C2966   1.403       .  A
C2965      C2970   1.393       .  A
C2966      C2967   1.421       .  A
C2966      H2971   1.083       .  S
C2967      C2968   1.427       .  A
C2967      O2972   1.376       .  S
C2968      C2969   1.419       .  A
C2969      C2970   1.374       .  A
C2969      H2973   1.078       .  S
C2970      O2974   1.372       .  S
O2972      H2976   0.992       .  S
O2974      H2975   0.992       .  S
C2977      C2978   1.397       .  A
C2977      C2982   1.399       .  A
C2978      C2979   1.394       .  A
C2978      H2983   1.086       .  S
C2979      C2980   1.430       .  A
C2979      O2984   1.371       .  S
C2980      C2981   1.423       .  A
C2981      C2982   1.401       .  A
C2981      H2985   1.079       .  S
C2982      O2986   1.371       .  S
O2984      H2988   0.992       .  S
O2986      H2987   0.992       .  S
C2989      C2990   1.406       .  A
C2989      C2994   1.410       .  A
C2990      C2991   1.417       .  A
C2990      H2995   1.083       .  S
C2991      C2992   1.426       .  A
C2991      O2996   1.371       .  S
C2992      C2993   1.412       .  A
C2993      C2994   1.400       .  A
C2993      H2997   1.082       .  S
C2994      O2998   1.372       .  S
O2996      H3000   0.992       .  S
O2998      H2999   0.992       .  S
C3001      C3002   1.419       .  A
C3001      C3006   1.428       .  A
C3002      C3003   1.393       .  A
C3002      H3007   1.079       .  S
C3003      C3004   1.404       .  A
C3003      O3008   1.372       .  S
C3004      C3005   1.405       .  A
C3005      C3006   1.423       .  A
C3005      H3009   1.078       .  S
C3006      O3010   1.375       .  S
O3008      H3012   0.992       .  S
O3010      H3011   0.992       .  S
C3013      C3014   1.408       .  A
C3013      C3018   1.410       .  A
C3014      C3015   1.427       .  A
C3014      H3019   1.078       .  S
C3015      C3016   1.419       .  A
C3015      O3020   1.374       .  S
C3016      C3017   1.409       .  A
C3017      C3018   1.373       .  A
C3017      H3021   1.082       .  S
C3018      O3022   1.376       .  S
O3020      H3024   0.992       .  S
O3022      H3023   0.993       .  S
C3025      C3026   1.419       .  A
C3025      C3030   1.422       .  A
C3026      C3027   1.416       .  A
C3026      H3031   1.080       .  S
C3027      C3028   1.410       .  A
C3027      O3032   1.371       .  S
C3028      C3029   1.401       .  A
C3029      C3030   1.402       .  A
C3029      H3033   1.084       .  S
C3030      O3034   1.372       .  S
O3032      H3036   0.992       .  S
O3034      H3035   0.992       .  S
C3037      C3038   1.420       .  A
C3037      C3042   1.435       .  A
C3038      C3039   1.398       .  A
C3038      H3043   1.076       .  S
C3039      C3040   1.400       .  A
C3039      O3044   1.372       .  S
C3040      C3041   1.390       .  A
C3041      C3042   1.393       .  A
C3041      H3045   1.086       .  S
C3042      O3046   1.376       .  S
O3044      H3048   0.991       .  S
O3046      H3047   0.993       .  S
C3049      C3050   1.408       .  A
C3049      C3054   1.389       .  A
C3050      C3051   1.389       .  A
C3050      H3055   1.081       .  S
C3051      C3052   1.407       .  A
C3051      O3056   1.372       .  S
C3052      C3053   1.433       .  A
C3053      C3054   1.393       .  A
C3053      H3057   1.080       .  S
C3054      O3058   1.372       .  S
O3056      H3060   0.989       .  S
O3058      H3059   0.992       .  S
C3061      C3062   1.420       .  A
C3061      C3066   1.417       .  A
C3062      C3063   1.411       .  A
C3062      H3067   1.080       .  S
C3063      C3064   1.410       .  A
C3063      O3068   1.371       .  S
C3064      C3065   1.409       .  A
C3065      C3066   1.401       .  A
C3065      H3069   1.083       .  S
C3066      O3070   1.374       .  S
O3068      H3072   0.992       .  S
C3073      C3074   1.413       .  A
C3073      C3078   1.427       .  A
C3074      C3075   1.403       .  A
C3075      C3076   1.410       .  A
C3075      O3080   1.373       .  S
C3076      C3077   1.407       .  A
C3077      C3078   1.420       .  A
C3077      H3081   1.083   1_565  S
C3078      O3082   1.371   1_565  S
O3082      H3083   0.992       .  S
C3085      C3086   1.395       .  A
C3085      C3090   1.400       .  A
C3087      O3092   1.371       .  S
C3088      C3089   1.423       .  A
C3089      C3090   1.403       .  A
C3089      H3093   1.080       .  S
C3090      O3094   1.371       .  S
O3092      H3096   0.992       .  S
O3094      H3095   0.992       .  S
C3097      C3098   1.394       .  A
C3097      C3102   1.403       .  A
C3098      C3099   1.393       .  A
C3098      H3103   1.085       .  S
C3099      C3100   1.432       .  A
C3099      O3104   1.371       .  S
C3100      C3101   1.420       .  A
C3101      C3102   1.402       .  A
C3101      H3105   1.075       .  S
O3104      H3108   0.992       .  S
O3106      H3107   0.991       .  S
C3109      C3110   1.401       .  A
C3109      C3114   1.408       .  A
C3110      C3111   1.399       .  A
C3110      H3115   1.084       .  S
C3111      C3112   1.421       .  A
C3111      O3116   1.372       .  S
C3112      C3113   1.418       .  A
C3113      C3114   1.414       .  A
C3113      H3117   1.080       .  S
O3116      H3120   0.992       .  S
O3118      H3119   0.992       .  S
C3121      C3122   1.417       .  A
C3122      C3123   1.391       .  A
C3122      H3127   1.075       .  S
C3123      C3124   1.405       .  A
C3123      O3128   1.375       .  S
C3125      C3126   1.411       .  A
C3125      H3129   1.084       .  S
C3126      O3130   1.372       .  S
O3128      H3132   0.992       .  S
O3130      H3131   0.993       .  S
C3133      C3138   1.405       .  A
C3134      C3135   1.404   1_554  A
C3134      H3139   1.084       .  S
C3135      C3136   1.430       .  A
C3135      O3140   1.371       .  S
C3137      C3138   1.403       .  A
C3137      H3141   1.077       .  S
C3138      O3142   1.371       .  S
O3140      H3144   0.992       .  S
O3142      H3143   0.992       .  S
C3145      C3146   1.398       .  A
C3145      C3150   1.407       .  A
C3146      C3147   1.407       .  A
C3146      H3151   1.084       .  S
C3147      C3148   1.430       .  A
C3148      C3149   1.416       .  A
C3149      C3150   1.408       .  A
C3149      H3153   1.072       .  S
C3150      O3154   1.374       .  S
O3152      H3156   0.992       .  S
O3154      H3155   0.992       .  S
C3157      C3158   1.397       .  A
C3157      C3162   1.406       .  A
C3158      C3159   1.381       .  A
C3158      H3163   1.085       .  S
C3159      C3160   1.425       .  A
C3159      O3164   1.372       .  S
C3160      C3161   1.418       .  A
C3161      C3162   1.415       .  A
O3164      H3168   0.993       .  S
O3166      H3167   0.992       .  S
C3169      C3170   1.415       .  A
C3170      C3171   1.422       .  A
C3170      H3175   1.077       .  S
C3171      C3172   1.410       .  A
C3171      O3176   1.369       .  S
C3173      C3174   1.398       .  A
C3173      H3177   1.083       .  S
C3174      O3178   1.374       .  S
O3178      H3179   0.992       .  S
C3181      C3186   1.392       .  A
C3182      C3183   1.420       .  A
C3182      H3187   1.083       .  S
C3183      O3188   1.374       .  S
C3184      C3185   1.418       .  A
C3185      C3186   1.371       .  A
C3185      H3189   1.078       .  S
C3186      O3190   1.374       .  S
O3188      H3192   0.992       .  S
O3190      H3191   0.992       .  S
C3193      C3194   1.413       .  A
C3193      C3198   1.436       .  A
C3194      C3195   1.386       .  A
C3194      H3199   1.076       .  S
C3195      C3196   1.404       .  A
C3195      O3200   1.375       .  S
C3196      C3197   1.391       .  A
C3197      C3198   1.404       .  A
C3197      H3201   1.084       .  S
C3198      O3202   1.373       .  S
O3200      H3204   0.992       .  S
O3202      H3203   0.992   1_655  S
C3205      C3206   1.421       .  A
C3205      C3210   1.415       .  A
C3206      C3207   1.400       .  A
C3206      H3211   1.084       .  S
C3207      C3208   1.400       .  A
C3207      O3212   1.371       .  S
C3208      C3209   1.403       .  A
C3209      C3210   1.403       .  A
C3209      H3213   1.085       .  S
C3210      O3214   1.371       .  S
O3212      H3216   0.992       .  S
O3214      H3215   0.992       .  S
