geometry optimzed in LAMMPS
_audit_creation_date              2020-11-30 
_audit_creation_method            'lammps2cif' 
_symmetry_space_group_name_H-M    'P1' 
_symmetry_Int_Tables_number       1 
_symmetry_cell_setting            triclinic 
loop_ 
_symmetry_equiv_pos_as_xyz 
  x,y,z 
_cell_length_a                    38.65517043 
_cell_length_b                    38.6171044272736 
_cell_length_c                    38.6112093874407 
_cell_angle_alpha                 89.9170789237886 
_cell_angle_beta                  90.02918607059699 
_cell_angle_gamma                 90.07661767208872 
loop_ 
_atom_site_label 
_atom_site_type_symbol 
_atom_site_fract_x 
_atom_site_fract_y 
_atom_site_fract_z 
_atom_site_charge 
O1          O  0.61187019  0.55104425  0.63446208    -0.89100
C2          C  0.60407678  0.64191768  0.68561671     0.87000
Mg3        Mg  0.65921526  0.53595884  0.60823518     1.58100
O4          O  0.55795322  0.63630063  0.60809980    -0.88800
O5          O  0.55593596  0.55787814  0.62595002    -0.76100
C6          C  0.69760741  0.67824349  0.52057714     0.92000
O7          O  0.67019249  0.59413969  0.67321219    -0.75900
O8          O  0.70753758  0.64769865  0.52794684    -0.83400
Mg9        Mg  0.61797529  0.56804086  0.68611340     1.58000
C10         C  0.55858672  0.71197198  0.53398209     0.91900
O11         O  0.56700483  0.54131224  0.70445420    -0.81700
H12         H  0.52283357  0.61215156  0.57860514    -0.07000
C13         C  0.65080788  0.68360274  0.60289831     0.86900
O14         O  0.63383219  0.55274037  0.55681230    -0.76200
O15         O  0.59180056  0.61459494  0.67417247    -0.89000
O16         O  0.55322265  0.70665434  0.56620802    -0.81800
C17         C  0.52178329  0.69126581  0.67538929     0.92100
C18         C  0.53496736  0.54765318  0.70987615     0.91900
Mg19       Mg  0.61678894  0.65556319  0.53817227     1.58000
O20         O  0.66639251  0.68759427  0.52467372    -0.81700
O21         O  0.56514407  0.62857562  0.55198397    -0.75900
O22         O  0.52528432  0.65962908  0.68454865    -0.81800
O23         O  0.64677249  0.51946563  0.69819012    -0.83500
O24         O  0.71252359  0.56706553  0.54477673    -0.81800
C25         C  0.54746482  0.62545190  0.57971686     0.86400
O26         O  0.64280784  0.60894859  0.55326388    -0.89000
O27         O  0.62339399  0.67303911  0.59014418    -0.89100
O28         O  0.67853011  0.66606522  0.60122991    -0.76100
Mg29       Mg  0.54087342  0.60890659  0.65371176     1.58000
O30         O  0.53092796  0.70174768  0.64557600    -0.83500
H31         H  0.58330953  0.51656959  0.60830010    -0.07200
O32         O  0.67864764  0.58668988  0.61753925    -0.88800
H33         H  0.71324226  0.61051773  0.64784431    -0.07000
H34         H  0.61907989  0.58218236  0.51574031    -0.07200
C35         C  0.68857508  0.59738803  0.64607082     0.86300
C36         C  0.58390612  0.54069535  0.62252854     0.86900
C37         C  0.63171931  0.58151705  0.54074539     0.87000
H38         H  0.65093386  0.70794786  0.61674081    -0.07200
O39         O  0.60288060  0.67007951  0.66848754    -0.76200
Mg40       Mg  0.69309249  0.61560964  0.57350475     1.58000
H41         H  0.61688520  0.64166993  0.71053850    -0.07200
C42         C  0.67773603  0.51264150  0.68945493     0.91900
O43         O  0.70562171  0.51885350  0.57575650    -0.83500
C44         C  0.71736767  0.53469573  0.54928937     0.92000
O45         O  0.52080887  0.57523522  0.69859293    -0.83400
Mg46       Mg  0.57818127  0.68656759  0.61652101     1.58200
O47         O  0.68867368  0.51855470  0.65886453    -0.81800
O48         O  0.58545963  0.70088471  0.51893701    -0.83500
O49         O  0.88911145  0.55789704  0.35923680    -0.89100
C50         C  0.90368991  0.64940874  0.31164137     0.87000
Mg51       Mg  0.84170896  0.54328496  0.38449067     1.58100
O52         O  0.94847914  0.63710845  0.38920305    -0.88800
O53         O  0.94531927  0.55972428  0.36827168    -0.76100
C54         C  0.81149553  0.67963352  0.47967081     0.92000
O55         O  0.83422131  0.60695919  0.32322672    -0.75900
O56         O  0.80258587  0.64863503  0.47337764    -0.83400
Mg57       Mg  0.88382555  0.57738086  0.30863683     1.58000
C58         C  0.95348804  0.71008527  0.46580704     0.91900
O59         O  0.93204642  0.54684414  0.29015966    -0.81700
H60         H  0.98289054  0.61062614  0.41750010    -0.07000
C61         C  0.85822356  0.68931904  0.39716941     0.86900
O62         O  0.86887123  0.55548807  0.43640907    -0.76200
O63         O  0.91359371  0.62085351  0.32230833    -0.89000
O64         O  0.95817121  0.70519077  0.43345379    -0.81800
C65         C  0.98804294  0.69169978  0.32372140     0.92100
C66         C  0.96452674  0.55096048  0.28566949     0.91900
Mg67       Mg  0.89154513  0.65699600  0.45987532     1.58000
O68         O  0.84236515  0.68992283  0.47458820    -0.81700
O69         O  0.94186855  0.62833659  0.44517480    -0.75900
O70         O  0.98216837  0.66086012  0.31341528    -0.81800
O71         O  0.85105573  0.53241690  0.29454928    -0.83500
O72         O  0.79248330  0.57024016  0.45066361    -0.81800
C73         C  0.95891006  0.62502890  0.41710317     0.86400
O74         O  0.86366336  0.61182209  0.44241501    -0.89000
O75         O  0.88557335  0.67718372  0.40865668    -0.89100
O76         O  0.82967097  0.67298817  0.39951917    -0.76100
Mg77       Mg  0.96358700  0.61057609  0.34264814     1.58000
O78         O  0.98107312  0.70111997  0.35444162    -0.83500
H79         H  0.91457869  0.51975413  0.38340631    -0.07200
O80         O  0.82456474  0.59531039  0.37813201    -0.88800
H81         H  0.79257959  0.62469811  0.34984629    -0.07000
H82         H  0.88637215  0.58208831  0.47832098    -0.07200
C83         C  0.81594149  0.60930870  0.35053735     0.86300
C84         C  0.91606459  0.54462471  0.37054420     0.86900
C85         C  0.87329549  0.58330912  0.45357133     0.87000
H86         H  0.85869349  0.71426366  0.38431653    -0.07200
O87         O  0.90669292  0.67667878  0.32984301    -0.76200
Mg88       Mg  0.81313305  0.62095527  0.42459979     1.58000
H89         H  0.89137526  0.65107283  0.28652395    -0.07200
C90         C  0.82007260  0.52608106  0.30362352     0.91900
O91         O  0.79568564  0.52482821  0.41553833    -0.83500
C92         C  0.78605769  0.53845497  0.44380570     0.92000
O93         O  0.98042351  0.57758447  0.29690529    -0.83400
Mg94       Mg  0.93206868  0.68884968  0.38257878     1.58200
O95         O  0.80987811  0.53099981  0.33446951    -0.81800
O96         O  0.92585979  0.70043603  0.48081068    -0.83500
O97         O  0.89044582  0.44488816  0.13863820    -0.89100
C98         C  0.89802640  0.35142752  0.18540205     0.87000
Mg99       Mg  0.84476967  0.46104989  0.11077346     1.58100
O100        O  0.94683108  0.36246032  0.11017695    -0.88800
O101        O  0.94684929  0.43971009  0.13243313    -0.76100
C102        C  0.81094807  0.32295842  0.01848519     0.92000
O103        O  0.83079301  0.39889556  0.17240058    -0.75900
O104        O  0.80383062  0.35482933  0.02180151    -0.83400
Mg105      Mg  0.88209266  0.42475069  0.18875417     1.58000
C106        C  0.95226033  0.28946740  0.03410483     0.91900
O107        O  0.93190819  0.45175972  0.20977699    -0.81700
H108        H  0.98271751  0.38861172  0.08333998    -0.07000
C109        C  0.85579630  0.31410771  0.10038768     0.86900
O110        O  0.87302275  0.44671417  0.06020883    -0.76200
O111        O  0.90958094  0.37960462  0.17533266    -0.89000
O112        O  0.95678930  0.29419112  0.06644628    -0.81800
C113        C  0.98131848  0.30488308  0.17650919     0.92100
C114        C  0.96384583  0.44560193  0.21595368     0.91900
Mg115      Mg  0.89158008  0.34434598  0.03805841     1.58000
O116        O  0.84154848  0.31201174  0.02375406    -0.81700
O117        O  0.94229212  0.37192139  0.05403740    -0.75900
O118        O  0.97543240  0.33545603  0.18750461    -0.81800
O119        O  0.85142641  0.47131016  0.20225843    -0.83500
O120        O  0.79507598  0.43322792  0.04361245    -0.81800
C121        C  0.95842909  0.37465160  0.08275396     0.86400
O122        O  0.86497195  0.39065630  0.05419992    -0.89000
O123        O  0.88379795  0.32471748  0.08892818    -0.89100
O124        O  0.82806540  0.33159668  0.09737939    -0.76100
Mg125      Mg  0.96120453  0.38729788  0.15795351     1.58000
O126        O  0.97625397  0.29691710  0.14508727    -0.83500
H127        H  0.91945482  0.48169614  0.11637816    -0.07200
O128        O  0.82470901  0.40995156  0.11698711    -0.88800
H129        H  0.78880555  0.38441213  0.14425858    -0.07000
H130        H  0.89038681  0.41906283  0.01901381    -0.07200
C131        C  0.81352561  0.39755154  0.14437045     0.86300
C132        C  0.91871777  0.45660838  0.12887285     0.86900
C133        C  0.87641494  0.41862654  0.04328743     0.87000
H134        H  0.85499683  0.28954097  0.11390752    -0.07200
O135        O  0.90145350  0.32395401  0.16758051    -0.76200
Mg136      Mg  0.81375805  0.38324533  0.07074472     1.58000
H137        H  0.88418166  0.35023130  0.20971502    -0.07200
C138        C  0.82164573  0.48029854  0.19144681     0.91900
O139        O  0.80045191  0.47991593  0.07697576    -0.83500
C140        C  0.78978260  0.46531810  0.04946173     0.92000
O141        O  0.97846703  0.41819633  0.20509212    -0.83400
Mg142      Mg  0.92880778  0.31114014  0.11596791     1.58200
O143        O  0.81262368  0.47638710  0.15998091    -0.81800
O144        O  0.92508898  0.29988463  0.01877103    -0.83500
C145        C  0.75770818  0.53873835  0.99540801     0.79500
N146        N  0.73913067  0.52099491  0.97098623    -0.78800
C147        C  0.73688911  0.48569599  0.97257336     0.82000
N148        N  0.75295877  0.46847800  0.99853756    -0.78700
C149        C  0.77118170  0.48557332  0.02301808     0.82000
N150        N  0.77366327  0.52069258  0.02135511    -0.80500
C151        C  0.03692756  0.49474938  0.25639805     0.79500
N152        N  0.01906627  0.52132922  0.27113746    -0.78800
C153        C  0.98409561  0.52337371  0.26804719     0.82000
N154        N  0.96682548  0.49832031  0.25057994    -0.78700
C155        C  0.98398217  0.47153500  0.23574530     0.82000
N156        N  0.01923188  0.46985749  0.23845318    -0.80500
O157        O  0.61201119  0.44414527  0.86289829    -0.89100
C158        C  0.60509267  0.35283558  0.81533456     0.87000
Mg159      Mg  0.65943029  0.46005599  0.88846737     1.58100
O160        O  0.55696620  0.36268452  0.89134410    -0.88800
O161        O  0.55576210  0.44017335  0.86993641    -0.76100
C162        C  0.69376232  0.32355844  0.98610218     0.92000
O163        O  0.67031544  0.39952655  0.82735029    -0.75900
O164        O  0.70337678  0.35419699  0.97847596    -0.83400
Mg165      Mg  0.61881663  0.42641088  0.81191473     1.58000
C166        C  0.55348809  0.28965514  0.96804191     0.91900
O167        O  0.56858867  0.45341400  0.79169536    -0.81700
H168        H  0.52164702  0.38893547  0.91859300    -0.07000
C169        C  0.64857861  0.31354471  0.90329604     0.86900
O170        O  0.63280192  0.44735627  0.94062837    -0.76200
O171        O  0.59203132  0.38067266  0.82436771    -0.89000
O172        O  0.54958214  0.29394335  0.93546470    -0.81800
C173        C  0.52209612  0.30579085  0.82439189     0.92100
C174        C  0.53657409  0.44699290  0.78617944     0.91900
Mg175      Mg  0.61311200  0.34566203  0.96454231     1.58000
O176        O  0.66263421  0.31375533  0.98135113    -0.81700
O177        O  0.56260471  0.37278113  0.94735695    -0.75900
O178        O  0.52581699  0.33723842  0.81503973    -0.81800
O179        O  0.64734871  0.47494702  0.80036169    -0.83500
O180        O  0.71070894  0.43346256  0.95466461    -0.81800
C181        C  0.54592209  0.37503722  0.91889491     0.86400
O182        O  0.64049025  0.39133414  0.94819957    -0.89000
O183        O  0.62097175  0.32587578  0.91365262    -0.89100
O184        O  0.67674343  0.33036505  0.90534235    -0.76100
Mg185      Mg  0.54106787  0.38814001  0.84421562     1.58000
O186        O  0.53064157  0.29550028  0.85450376    -0.83500
H187        H  0.58438516  0.48135919  0.88603783    -0.07200
O188        O  0.67768407  0.40842272  0.88304634    -0.88800
H189        H  0.71188778  0.38205603  0.85450547    -0.07000
H190        H  0.61660790  0.42102140  0.98329505    -0.07200
C191        C  0.68775478  0.39620120  0.85518205     0.86300
C192        C  0.58429194  0.45639944  0.87330322     0.86900
C193        C  0.62971329  0.41975171  0.95856682     0.87000
H194        H  0.64859519  0.28818013  0.89143290    -0.07200
O195        O  0.60366323  0.32587571  0.83427483    -0.76200
Mg196      Mg  0.69101362  0.38275446  0.92963784     1.58000
H197        H  0.61901222  0.35167244  0.79106680    -0.07200
C198        C  0.67929965  0.47817806  0.80700251     0.91900
O199        O  0.70553753  0.47909794  0.91976039    -0.83500
C200        C  0.71660644  0.46523963  0.94750346     0.92000
O201        O  0.52225686  0.41965087  0.79781430    -0.83400
Mg202      Mg  0.57669297  0.31182680  0.88563814     1.58200
O203        O  0.69083184  0.47224812  0.83730764    -0.81800
O204        O  0.57963441  0.30143992  0.98406086    -0.83500
O205        O  0.38844896  0.09540337  0.82218606    -0.89100
C206        C  0.37835741  0.03973416  0.90927580     0.87000
Mg207      Mg  0.43350826  0.12519137  0.81062631     1.58100
O208        O  0.32758899  0.11344547  0.90509219    -0.88800
O209        O  0.33206809  0.10195278  0.82587613    -0.76100
C210        C  0.45705815  0.21332825  0.95562448     0.92000
O211        O  0.44545855  0.05828291  0.86792987    -0.75900
O212        O  0.47117181  0.20456563  0.92718601    -0.83400
Mg213      Mg  0.39631210  0.04355794  0.83728349     1.58000
C214        C  0.31629928  0.18241777  0.98324851     0.91900
O215        O  0.34839009  0.02680051  0.80429083    -0.81700
H216        H  0.29038597  0.14109968  0.88200605    -0.07000
C217        C  0.41737536  0.12440006  0.95859502     0.86900
O218        O  0.40306177  0.17355166  0.82837257    -0.76200
O219        O  0.36619195  0.05137761  0.88191098    -0.89000
O220        O  0.31280516  0.15028568  0.97609039    -0.81800
C221        C  0.29072762  0.04104114  0.95128992     0.92100
C222        C  0.31586292  0.02120778  0.80707170     0.91900
Mg223      Mg  0.37889217  0.18640873  0.93073848     1.58000
O224        O  0.42590871  0.20551451  0.96294617    -0.81700
O225        O  0.32966188  0.17015646  0.90139686    -0.75900
O226        O  0.29601786  0.03482027  0.91929391    -0.81800
O227        O  0.43052711  0.03466688  0.79234606    -0.83500
O228        O  0.47691570  0.19086329  0.84488491    -0.81800
C229        C  0.31469128  0.14132648  0.89588495     0.86400
O230        O  0.40842785  0.17555675  0.88506749    -0.89000
O231        O  0.38937987  0.13495353  0.94705870    -0.89100
O232        O  0.44567327  0.12891107  0.94233920    -0.76100
Mg233      Mg  0.31501998  0.06986873  0.87333407     1.58000
O234        O  0.30152792  0.06844919  0.96593639    -0.83500
H235        H  0.36135978  0.12260932  0.78737072    -0.07200
O236        O  0.45072495  0.11473010  0.86216014    -0.88800
H237        H  0.48553704  0.08604470  0.88765879    -0.07000
H238        H  0.38273842  0.21171891  0.85825661    -0.07200
C239        C  0.46177171  0.08654108  0.87287357     0.86300
C240        C  0.36085157  0.10696893  0.81064432     0.86900
C241        C  0.39768875  0.18806721  0.85750111     0.87000
H242        H  0.41763592  0.11004922  0.98267323    -0.07200
O243        O  0.37546220  0.05559749  0.93801467    -0.76200
Mg244      Mg  0.46023985  0.15905746  0.89285878     1.58000
H245        H  0.39307281  0.01596626  0.90846142    -0.07200
C246        C  0.45960198  0.04777925  0.78414718     0.91900
O247        O  0.47718894  0.16108696  0.79567101    -0.83500
C248        C  0.48308913  0.18866531  0.81243691     0.92000
O249        O  0.29964033  0.02782964  0.83495526    -0.83400
Mg250      Mg  0.34547572  0.10369320  0.95594094     1.58200
O251        O  0.46751419  0.07886321  0.79160629    -0.81800
O252        O  0.34404714  0.19875915  0.97631791    -0.83500
C253        C  0.49707277  0.24927487  0.03588070     0.79500
N254        N  0.52322808  0.26841187  0.02133854    -0.78800
C255        C  0.52665449  0.26966140  0.98614508     0.82000
N256        N  0.50417946  0.25220049  0.96605867    -0.78700
C257        C  0.47820622  0.23351565  0.97974342     0.82000
N258        N  0.47462614  0.23172308  0.01477847    -0.80500
C259        C  0.50153032  0.25513261  0.74441529     0.79500
N260        N  0.49452191  0.22365271  0.75927368    -0.78800
C261        C  0.49498248  0.22011084  0.79445775     0.82000
N262        N  0.50248341  0.24774175  0.81429686    -0.78700
C263        C  0.50954043  0.27898582  0.80038740     0.82000
N264        N  0.50898700  0.28290262  0.76525033    -0.80500
C265        C  0.53558790  0.00359286  0.74276632     0.79500
N266        N  0.51758845  0.02788098  0.76155190    -0.78800
C267        C  0.48249062  0.02493044  0.76438921     0.82000
N268        N  0.46637389  0.99819589  0.74944516    -0.78700
C269        C  0.48314297  0.97426304  0.73106305     0.82000
N270        N  0.51800675  0.97696696  0.72700885    -0.80500
C271        C  0.96154517  0.00003334  0.25572482     0.79500
N272        N  0.98053489  0.97622789  0.27415713    -0.78800
C273        C  0.01560764  0.97548906  0.27099966     0.82000
N274        N  0.03133043  0.99836300  0.25033820    -0.78700
C275        C  0.01388942  0.02211854  0.23211124     0.82000
N276        N  0.97850066  0.02325869  0.23443010    -0.80500
C277        C  0.25875926  0.25544587  0.00819929     0.79500
N278        N  0.22845508  0.23812077  0.01399898    -0.78800
C279        C  0.22707108  0.20280826  0.01171604     0.82000
N280        N  0.25611027  0.18496471  0.00318884    -0.78700
C281        C  0.28637300  0.20178738  0.99702889     0.82000
N282        N  0.28757479  0.23695399  0.99973154    -0.80500
C283        C  0.25698094  0.96442797  0.00013470     0.79500
N284        N  0.23770841  0.98165057  0.02462227    -0.78800
C285        C  0.23538072  0.01692378  0.02324628     0.82000
N286        N  0.25151067  0.03412094  0.99772241    -0.78700
C287        C  0.27024877  0.01807184  0.97344697     0.82000
N288        N  0.27357207  0.98299092  0.97466599    -0.80500
C289        C  0.25292631  0.99537858  0.24732184     0.79500
N290        N  0.23604139  0.99186968  0.27825028    -0.78800
C291        C  0.20068578  0.99365690  0.27972414     0.82000
N292        N  0.18238780  0.99889271  0.25009788    -0.78700
C293        C  0.19874448  0.00241564  0.21919964     0.82000
N294        N  0.23388952  0.00066818  0.21804549    -0.80500
C295        C  0.00916572  0.25615388  0.96346984     0.79500
N296        N  0.98264572  0.27269442  0.97998536    -0.78800
C297        C  0.97975006  0.27131704  0.01501692     0.82000
N298        N  0.00364652  0.25389958  0.03348131    -0.78700
C299        C  0.03029586  0.23730003  0.01814968     0.82000
N300        N  0.03311839  0.23802430  0.98270075    -0.80500
C301        C  0.99248699  0.24661661  0.25311340     0.79500
N302        N  0.00184028  0.21700455  0.23623409    -0.78800
C303        C  0.00630597  0.21699638  0.20134216     0.82000
N304        N  0.00134378  0.24653246  0.18346710    -0.78700
C305        C  0.99194778  0.27624223  0.19938633     0.82000
N306        N  0.98741468  0.27646049  0.23450064    -0.80500
O307        O  0.11063915  0.08894866  0.17438375    -0.89100
C308        C  0.12346093  0.03822757  0.08372257     0.87000
Mg309      Mg  0.06691677  0.12072286  0.18538368     1.58100
O310        O  0.17724075  0.10947868  0.09524469    -0.88800
O311        O  0.16748479  0.09229883  0.17319102    -0.76100
C312        C  0.05192302  0.21579217  0.04150722     0.92000
O313        O  0.05405009  0.05684692  0.12400088    -0.75900
O314        O  0.03696133  0.20512136  0.06889327    -0.83400
Mg315      Mg  0.10097632  0.03852697  0.15572824     1.58000
C316        C  0.19558573  0.18355045  0.02232517     0.91900
O317        O  0.14677029  0.01963289  0.19072854    -0.81700
H318        H  0.21272392  0.13501598  0.12306628    -0.07000
C319        C  0.09091544  0.12541257  0.03844623     0.86900
O320        O  0.10036430  0.16799975  0.17026978    -0.76200
O321        O  0.13392616  0.04784556  0.11251934    -0.89000
O322        O  0.19756531  0.15087980  0.02771573    -0.81800
C323        C  0.21434772  0.03878742  0.04620859     0.92100
C324        C  0.17895702  0.01246647  0.18798078     0.91900
Mg325      Mg  0.12905911  0.18616666  0.07016564     1.58000
O326        O  0.08362923  0.20875695  0.03522927    -0.81700
O327        O  0.17579472  0.16603402  0.10205186    -0.75900
O328        O  0.20622410  0.03006022  0.07704991    -0.81800
O329        O  0.06320765  0.02841074  0.19834759    -0.83500
O330        O  0.02679160  0.18991843  0.15057297    -0.81800
C331        C  0.18970067  0.13654547  0.10720467     0.86400
O332        O  0.09683318  0.17390880  0.11363614    -0.89000
O333        O  0.11860933  0.13565354  0.05101308    -0.89100
O334        O  0.06208588  0.12959400  0.05381321    -0.76100
Mg335      Mg  0.18548719  0.06276445  0.12442460     1.58000
O336        O  0.20566597  0.06784357  0.03335203    -0.83500
H337        H  0.13792824  0.11223021  0.21177983    -0.07200
O338        O  0.05138034  0.11306214  0.13288266    -0.88800
H339        H  0.01585986  0.08758623  0.10509299    -0.07000
H340        H  0.12353084  0.20686245  0.14340660    -0.07200
C341        C  0.03920060  0.08606712  0.12046119     0.86300
C342        C  0.13842029  0.09813428  0.18759684     0.86900
C343        C  0.10729129  0.18405044  0.14225978     0.87000
H344        H  0.09139301  0.11145355  0.01419886    -0.07200
O345        O  0.12952510  0.05540353  0.05616570    -0.76200
Mg346      Mg  0.04523467  0.15873085  0.10290713     1.58000
H347        H  0.10784079  0.01505141  0.08207517    -0.07200
C348        C  0.03601092  0.04338242  0.20940427     0.91900
O349        O  0.02451494  0.15843802  0.19887647    -0.83500
C350        C  0.01929769  0.18655152  0.18263346     0.92000
O351        O  0.19519125  0.01683610  0.15963993    -0.83400
Mg352      Mg  0.16220782  0.10375569  0.04293578     1.58200
O353        O  0.03023365  0.07538077  0.20372875    -0.81800
O354        O  0.16782846  0.20023742  0.02816270    -0.83500
O355        O  0.38972731  0.90307761  0.67436716    -0.89100
C356        C  0.38004227  0.95699309  0.58622402     0.87000
Mg357      Mg  0.43451582  0.87317211  0.68649012     1.58100
O358        O  0.32915272  0.88363080  0.59312085    -0.88800
O359        O  0.33323143  0.89740022  0.67173947    -0.76100
C360        C  0.45853058  0.78327456  0.54263927     0.92000
O361        O  0.44683688  0.93895952  0.62774559    -0.75900
O362        O  0.47206425  0.79225227  0.57130628    -0.83400
Mg363      Mg  0.39794582  0.95458267  0.65819652     1.58000
C364        C  0.31595408  0.81285410  0.51753231     0.91900
O365        O  0.35038913  0.97237621  0.69131534    -0.81700
H366        H  0.29298590  0.85635502  0.61830561    -0.07000
C367        C  0.41802923  0.87142409  0.53894561     0.86900
O368        O  0.40391010  0.82462109  0.66967420    -0.76200
O369        O  0.36803018  0.94591325  0.61389526    -0.89000
O370        O  0.31293905  0.84516676  0.52395467    -0.81800
C371        C  0.29341738  0.95596540  0.54542906     0.92100
C372        C  0.31810961  0.97868989  0.68769670     0.91900
Mg373      Mg  0.38003337  0.80972503  0.56807329     1.58000
O374        O  0.42720369  0.79035573  0.53501592    -0.81700
O375        O  0.33160334  0.82694854  0.59830806    -0.75900
O376        O  0.29933846  0.96275918  0.57708784    -0.81800
O377        O  0.43184363  0.96433726  0.70260052    -0.83500
O378        O  0.47801762  0.80667500  0.65316888    -0.81800
C379        C  0.31676314  0.85589059  0.60357272     0.86400
O380        O  0.40992264  0.82121885  0.61311255    -0.89000
O381        O  0.39014523  0.86092793  0.55082822    -0.89100
O382        O  0.44646034  0.86730548  0.55507672    -0.76100
Mg383      Mg  0.31695694  0.92831810  0.62334374     1.58000
O384        O  0.30254785  0.92758543  0.53150113    -0.83500
H385        H  0.36272680  0.87741934  0.71043717    -0.07200
O386        O  0.45191502  0.88264207  0.63484864    -0.88800
H387        H  0.48671581  0.91068378  0.60857955    -0.07000
H388        H  0.38403072  0.78561141  0.64052956    -0.07200
C389        C  0.46302292  0.91057021  0.62345678     0.86300
C390        C  0.36213668  0.89231409  0.68668745     0.86900
C391        C  0.39896697  0.80932950  0.64087262     0.87000
H392        H  0.41807188  0.88540724  0.51464403    -0.07200
O393        O  0.37688607  0.94051399  0.55785930    -0.76200
Mg394      Mg  0.46137683  0.83795565  0.60490264     1.58000
H395        H  0.39482286  0.98077464  0.58644061    -0.07200
C396        C  0.46064323  0.95121390  0.71134759     0.91900
O397        O  0.47783508  0.83684483  0.70214725    -0.83500
C398        C  0.48380624  0.80907669  0.68566501     0.92000
O399        O  0.30235225  0.97188983  0.65962007    -0.83400
Mg400      Mg  0.34628144  0.89210854  0.54182791     1.58200
O401        O  0.46852838  0.91995392  0.70461502    -0.81800
O402        O  0.34384773  0.79652967  0.52379137    -0.83500
O403        O  0.11285987  0.90837525  0.32615782    -0.89100
C404        C  0.12576832  0.95917660  0.41637348     0.87000
Mg405      Mg  0.06949529  0.87677686  0.31409796     1.58100
O406        O  0.17845454  0.88773788  0.40447672    -0.88800
O407        O  0.16960734  0.90472879  0.32661786    -0.76100
C408        C  0.05436540  0.78064978  0.45537517     0.92000
O409        O  0.05634976  0.94006439  0.37632989    -0.75900
O410        O  0.03986724  0.78991190  0.42730219    -0.83400
Mg411      Mg  0.10346580  0.95881622  0.34475069     1.58000
C412        C  0.19567670  0.81304844  0.47800520     0.91900
O413        O  0.14940057  0.97768480  0.30994122    -0.81700
H414        H  0.21500884  0.86280571  0.37766822    -0.07000
C415        C  0.09186673  0.87106741  0.46109888     0.86900
O416        O  0.10288235  0.82938380  0.32849605    -0.76200
O417        O  0.13613306  0.94941778  0.38759952    -0.89000
O418        O  0.19839998  0.84567469  0.47239309    -0.81800
C419        C  0.21578786  0.95839484  0.45254892     0.92100
C420        C  0.18179429  0.98433734  0.31180272     0.91900
Mg421      Mg  0.13075057  0.81139594  0.42875633     1.58000
O422        O  0.08545006  0.78907386  0.46249868    -0.81700
O423        O  0.17805497  0.83125996  0.39789989    -0.75900
O424        O  0.20731094  0.96711335  0.42191483    -0.81800
O425        O  0.06633115  0.96939641  0.30220992    -0.83500
O426        O  0.03079903  0.80722874  0.34665016    -0.81800
C427        C  0.19163846  0.86091548  0.39293939     0.86400
O428        O  0.09939473  0.82427190  0.38508010    -0.89000
O429        O  0.11984432  0.86153949  0.44863240    -0.89100
O430        O  0.06318863  0.86622709  0.44551204    -0.76100
Mg431      Mg  0.18745464  0.93419616  0.37523255     1.58000
O432        O  0.20761388  0.92917305  0.46552449    -0.83500
H433        H  0.13943001  0.88527510  0.28822859    -0.07200
O434        O  0.05316804  0.88393446  0.36656131    -0.88800
H435        H  0.01800835  0.90920383  0.39491972    -0.07000
H436        H  0.12585626  0.79076712  0.35583811    -0.07200
C437        C  0.04129044  0.91083078  0.37948421     0.86300
C438        C  0.14036067  0.89920392  0.31250467     0.86900
C439        C  0.10979676  0.81367441  0.35666548     0.87000
H440        H  0.09189371  0.88471367  0.48554377    -0.07200
O441        O  0.13149614  0.94190568  0.44392223    -0.76200
Mg442      Mg  0.04745018  0.83766715  0.39534697     1.58000
H443        H  0.11047702  0.98253195  0.41798699    -0.07200
C444        C  0.03890079  0.95432540  0.29199448     0.91900
O445        O  0.02764260  0.83870944  0.29852493    -0.83500
C446        C  0.02372338  0.81020539  0.31445354     0.92000
O447        O  0.19861783  0.97968624  0.33972165    -0.83400
Mg448      Mg  0.16369143  0.89334307  0.45678487     1.58200
O449        O  0.03328290  0.92226288  0.29735244    -0.81800
O450        O  0.16788335  0.79671608  0.47148270    -0.83500
C451        C  0.01138976  0.74619619  0.53516007     0.79500
N452        N  0.98401798  0.72931919  0.51995689    -0.78800
C453        C  0.98143727  0.72798464  0.48468506     0.82000
N454        N  0.00587730  0.74333685  0.46514381    -0.78700
C455        C  0.03293839  0.76009452  0.47928280     0.82000
N456        N  0.03572390  0.76180735  0.51443963    -0.80500
C457        C  0.25874554  0.03294828  0.49771714     0.79500
N458        N  0.27633895  0.01437415  0.52250589    -0.78800
C459        C  0.27348055  0.97919489  0.52326102     0.82000
N460        N  0.25427795  0.96320468  0.49943339    -0.78700
C461        C  0.23712181  0.98040605  0.47479032     0.82000
N462        N  0.23886617  0.01571103  0.47370798    -0.80500
C463        C  0.25642245  0.74018414  0.49609073     0.79500
N464        N  0.28569366  0.75828580  0.50393582    -0.78800
C465        C  0.28542699  0.79352242  0.50510921     0.82000
N466        N  0.25571272  0.81078853  0.49798994    -0.78700
C467        C  0.22629768  0.79335180  0.48989751     0.82000
N468        N  0.22665249  0.75792497  0.48914073    -0.80500
C469        C  0.00546091  0.74530991  0.24493581     0.79500
N470        N  0.99944227  0.71662401  0.26504286    -0.78800
C471        C  0.00031642  0.71918913  0.30025559     0.82000
N472        N  0.00723213  0.75011097  0.31493479    -0.78700
C473        C  0.01296689  0.77872533  0.29580389     0.82000
N474        N  0.01207790  0.77646934  0.26054497    -0.80500
C475        C  0.24422983  0.00472344  0.74409184     0.79500
N476        N  0.26122564  0.01167214  0.77438929    -0.78800
C477        C  0.29650651  0.00914250  0.77618848     0.82000
N478        N  0.31455818  0.99936231  0.74766048    -0.78700
C479        C  0.29811987  0.99215403  0.71746905     0.82000
N480        N  0.26301375  0.99504022  0.71578807    -0.80500
C481        C  0.75149803  0.24709289  0.00372684     0.79500
N482        N  0.78169946  0.26505528  0.00973588    -0.78800
C483        C  0.78136439  0.30031094  0.01028351     0.82000
N484        N  0.75142570  0.31690472  0.00511913    -0.78700
C485        C  0.72155671  0.30048357  0.99868700     0.82000
N486        N  0.72126304  0.26504077  0.99767783    -0.80500
C487        C  0.50054980  0.74300616  0.75451199     0.79500
N488        N  0.50792944  0.71488741  0.73414363    -0.78800
C489        C  0.50890249  0.71834221  0.69899643     0.82000
N490        N  0.50238731  0.74956886  0.68464728    -0.78700
C491        C  0.49510025  0.77757846  0.70405688     0.82000
N492        N  0.49417424  0.77440276  0.73923503    -0.80500
C493        C  0.50353565  0.74968951  0.46358251     0.79500
N494        N  0.53022879  0.73242477  0.47940390    -0.78800
C495        C  0.53215208  0.73132122  0.51473126     0.82000
N496        N  0.50771173  0.74706651  0.53373806    -0.78700
C497        C  0.48113391  0.76394991  0.51898858     0.82000
N498        N  0.47898144  0.76557617  0.48376427    -0.80500
C499        C  0.75463958  0.75501270  0.50266316     0.79500
N500        N  0.78418162  0.73728173  0.49372879    -0.78800
C501        C  0.78348658  0.70207124  0.49201712     0.82000
N502        N  0.75399766  0.68538163  0.49896713    -0.78700
C503        C  0.72485938  0.70161101  0.50792008     0.82000
N504        N  0.72477182  0.73694420  0.51004664    -0.80500
C505        C  0.46216919  0.49924667  0.75275852     0.79500
N506        N  0.47945671  0.52333823  0.73316820    -0.78800
C507        C  0.51477293  0.52208101  0.73039365     0.82000
N508        N  0.53244257  0.49673891  0.74713639    -0.78700
C509        C  0.51585653  0.47256843  0.76641481     0.82000
N510        N  0.48073966  0.47400431  0.76929826    -0.80500
C511        C  0.75372757  0.49042682  0.74572196     0.79500
N512        N  0.73533350  0.49797274  0.71619457    -0.78800
C513        C  0.70016269  0.49985034  0.71756002     0.82000
N514        N  0.68417476  0.49432913  0.74789445    -0.78700
C515        C  0.70137454  0.48714819  0.77724049     0.82000
N516        N  0.73659457  0.48504524  0.77646166    -0.80500
C517        C  0.75076398  0.46317008  0.49389017     0.79500
N518        N  0.73514054  0.48034592  0.52047883    -0.78800
C519        C  0.73617007  0.51552523  0.52217836     0.82000
N520        N  0.75232622  0.53358149  0.49679941    -0.78700
C521        C  0.76773578  0.51719975  0.46993250     0.82000
N522        N  0.76709313  0.48176756  0.46847595    -0.80500
C523        C  0.74494228  0.50677880  0.24491335     0.79500
N524        N  0.76350262  0.49657988  0.21626520    -0.78800
C525        C  0.79868130  0.49479237  0.21801094     0.82000
N526        N  0.81452527  0.50296941  0.24762874    -0.78700
C527        C  0.79746521  0.51316369  0.27591752     0.82000
N528        N  0.76217458  0.51526980  0.27498178    -0.80500
O529        O  0.11277683  0.32122028  0.59440686    -0.89100
C530        C  0.12618707  0.41466092  0.54768794     0.87000
Mg531      Mg  0.06552122  0.31174886  0.62020919     1.58100
O532        O  0.17240116  0.40669114  0.62460333    -0.88800
O533        O  0.16766743  0.32776789  0.60780811    -0.76100
C534        C  0.03294579  0.45106954  0.71604291     0.92000
O535        O  0.05775464  0.37062903  0.55664697    -0.75900
O536        O  0.01732200  0.42436092  0.70468470    -0.83400
Mg537      Mg  0.10822403  0.34136541  0.54303824     1.58000
C538        C  0.17625456  0.47933635  0.69749329     0.91900
O539        O  0.15733318  0.30840290  0.52771128    -0.81700
H540        H  0.20689378  0.38130651  0.65371570    -0.07000
C541        C  0.08103461  0.45723012  0.62970333     0.86900
O542        O  0.09158873  0.32560837  0.67236783    -0.76200
O543        O  0.13621846  0.38649229  0.55948033    -0.89000
O544        O  0.18610809  0.47438991  0.66637822    -0.81800
C545        C  0.21312703  0.45807131  0.55684418     0.92100
C546        C  0.18912588  0.31679657  0.52503523     0.91900
Mg547      Mg  0.11399958  0.42608524  0.69293761     1.58000
O548        O  0.06528047  0.45559708  0.71110883    -0.81700
O549        O  0.16465228  0.39790023  0.68007863    -0.75900
O550        O  0.20735538  0.42590483  0.55186529    -0.81800
O551        O  0.07441892  0.29785585  0.52353917    -0.83500
O552        O  0.01900044  0.34056019  0.69164594    -0.81800
C553        C  0.18258471  0.39509482  0.65267963     0.86400
O554        O  0.08553995  0.38176796  0.67879474    -0.89000
O555        O  0.10832703  0.44543795  0.64191177    -0.89100
O556        O  0.05223796  0.44119978  0.63216798    -0.76100
Mg557      Mg  0.18578002  0.37779668  0.58068459     1.58000
O558        O  0.20246433  0.47358273  0.58382955    -0.83500
H559        H  0.13874748  0.28639114  0.62262747    -0.07200
O560        O  0.05048980  0.36349096  0.61269966    -0.88800
H561        H  0.01652127  0.38941474  0.58332984    -0.07000
H562        H  0.10870368  0.35212724  0.71447258    -0.07200
C563        C  0.04042781  0.37490152  0.58440416     0.86300
C564        C  0.13956039  0.31057091  0.60844664     0.86900
C565        C  0.09564432  0.35335199  0.68970769     0.87000
H566        H  0.08183373  0.48160322  0.61583010    -0.07200
O567        O  0.12955431  0.44295063  0.56435473    -0.76200
Mg568      Mg  0.03504928  0.39063168  0.65945087     1.58000
H569        H  0.11337474  0.41511108  0.52277004    -0.07200
C570        C  0.04616724  0.28785940  0.53707470     0.91900
O571        O  0.01574150  0.30345818  0.64829988    -0.83500
C572        C  0.01231669  0.31032785  0.68030424     0.92000
O573        O  0.20045162  0.34563464  0.53603921    -0.83400
Mg574      Mg  0.15578626  0.45831231  0.61585234     1.58200
O575        O  0.03912165  0.29338114  0.56898882    -0.81800
O576        O  0.14585952  0.47157850  0.70744603    -0.83500
O577        O  0.61348038  0.13844600  0.44526633    -0.89100
C578        C  0.60311973  0.18861550  0.35476747     0.87000
Mg579      Mg  0.65729521  0.10717591  0.45449661     1.58100
O580        O  0.54900366  0.11641625  0.36315376    -0.88800
O581        O  0.55697564  0.13272960  0.44241428    -0.76100
C582        C  0.68071162  0.01763149  0.31024031     0.92000
O583        O  0.67102359  0.17056347  0.39543633    -0.75900
O584        O  0.69711549  0.02319594  0.33823154    -0.83400
Mg585      Mg  0.62377451  0.18951106  0.42669297     1.58000
C586        C  0.53779362  0.04636835  0.28839464     0.91900
O587        O  0.57784334  0.20978721  0.46095681    -0.81700
H588        H  0.51416153  0.08958440  0.39057659    -0.07000
C589        C  0.63793971  0.10340948  0.31009943     0.86900
O590        O  0.62613833  0.05824872  0.44077265    -0.76200
O591        O  0.59253207  0.17731817  0.38290963    -0.89000
O592        O  0.53082695  0.07806197  0.29418327    -0.81800
C593        C  0.51712915  0.18958142  0.31202522     0.92100
C594        C  0.54632137  0.21702802  0.45436502     0.91900
Mg595      Mg  0.60152740  0.04294754  0.34105210     1.58000
O596        O  0.64839687  0.02432964  0.30757171    -0.81700
O597        O  0.55345449  0.06022515  0.37184787    -0.75900
O598        O  0.52345991  0.19200363  0.34442222    -0.81800
O599        O  0.66177107  0.20469972  0.46905287    -0.83500
O600        O  0.70270656  0.03535074  0.42106039    -0.81800
C601        C  0.53766298  0.08894693  0.37541991     0.86400
O602        O  0.63278753  0.05197564  0.38457760    -0.89000
O603        O  0.61032464  0.09391051  0.32338033    -0.89100
O604        O  0.66705405  0.09777530  0.32447682    -0.76100
Mg605      Mg  0.54107730  0.16162176  0.39271874     1.58000
O606        O  0.52321483  0.16194422  0.29531348    -0.83500
H607        H  0.58610767  0.11454784  0.48225319    -0.07200
O608        O  0.67336038  0.11400385  0.40254875    -0.88800
H609        H  0.70871328  0.14016833  0.37512573    -0.07000
H610        H  0.60678875  0.01768830  0.41350605    -0.07200
C611        C  0.68549431  0.14131327  0.39068755     0.86300
C612        C  0.58574530  0.12836624  0.45786197     0.86900
C613        C  0.62169118  0.04138972  0.41280370     0.87000
H614        H  0.63724631  0.11753971  0.28588265    -0.07200
O615        O  0.59762085  0.17283834  0.32635168    -0.76200
Mg616      Mg  0.68412198  0.06819207  0.37359096     1.58000
H617        H  0.61832923  0.21215186  0.35445150    -0.07200
C618        C  0.68905198  0.18733758  0.47492347     0.91900
O619        O  0.70191788  0.07193167  0.46563702    -0.83500
C620        C  0.70999191  0.04290271  0.45234301     0.92000
O621        O  0.53188203  0.20813177  0.42609126    -0.83400
Mg622      Mg  0.56594552  0.12459943  0.31105459     1.58200
O623        O  0.69026379  0.15469382  0.46965168    -0.81800
O624        O  0.56623821  0.03266504  0.29750724    -0.83500
C625        C  0.50332478  0.24893256  0.53522017     0.79500
N626        N  0.52753636  0.23373316  0.51412353    -0.78800
C627        C  0.52445261  0.23612610  0.47899397     0.82000
N628        N  0.49712968  0.25280728  0.46537176    -0.78700
C629        C  0.47274165  0.26753296  0.48533593     0.82000
N630        N  0.47575804  0.26587159  0.52054058    -0.80500
O631        O  0.37713583  0.32020217  0.41055822    -0.89100
C632        C  0.36768110  0.41281426  0.45800347     0.87000
Mg633      Mg  0.42327077  0.30881282  0.38433158     1.58100
O634        O  0.31930259  0.40578040  0.38221441    -0.88800
O635        O  0.32174956  0.32690464  0.39994821    -0.76100
C636        C  0.46123289  0.44673809  0.28939074     0.92000
O637        O  0.43424755  0.36689775  0.44866496    -0.75900
O638        O  0.47573438  0.41974286  0.30140505    -0.83400
Mg639      Mg  0.38325556  0.33866364  0.46230690     1.58000
C640        C  0.31838427  0.47808077  0.30904386     0.91900
O641        O  0.33314384  0.30611562  0.47546999    -0.81700
H642        H  0.28487260  0.38057248  0.35282380    -0.07000
C643        C  0.41232032  0.45439013  0.37562829     0.86900
O644        O  0.39771249  0.32307573  0.33211010    -0.76200
O645        O  0.35673274  0.38497794  0.44628197    -0.89000
O646        O  0.30724850  0.47241137  0.33959985    -0.81800
C647        C  0.28115342  0.45933789  0.45028054     0.92100
C648        C  0.30216541  0.31629929  0.48009190     0.91900
Mg649      Mg  0.37890205  0.42441089  0.31296250     1.58000
O650        O  0.42897170  0.45244349  0.29391902    -0.81700
O651        O  0.32731436  0.39729085  0.32662651    -0.75900
O652        O  0.28674709  0.42713662  0.45548904    -0.81800
O653        O  0.41676231  0.29417565  0.48206944    -0.83500
O654        O  0.47261053  0.33747701  0.31575716    -0.81800
C655        C  0.30928639  0.39424333  0.35403589     0.86400
O656        O  0.40607800  0.37898823  0.32586994    -0.89000
O657        O  0.38487786  0.44239486  0.36411543    -0.89100
O658        O  0.44087072  0.43814972  0.37309514    -0.76100
Mg659      Mg  0.30630803  0.37782586  0.42717993     1.58000
O660        O  0.29184778  0.47451258  0.42302531    -0.83500
H661        H  0.34958879  0.28533656  0.38386834    -0.07200
O662        O  0.44011957  0.36016488  0.39236202    -0.88800
H663        H  0.47539278  0.38488744  0.42121044    -0.07000
H664        H  0.38216905  0.35037435  0.28985548    -0.07200
C665        C  0.45108038  0.37099658  0.42055157     0.86300
C666        C  0.34967682  0.30960830  0.39782786     0.86900
C667        C  0.39503187  0.35099748  0.31474027     0.87000
H668        H  0.41187953  0.47906516  0.38889115    -0.07200
O669        O  0.36448647  0.44131136  0.44158376    -0.76200
Mg670      Mg  0.45659153  0.38708817  0.34643974     1.58000
H671        H  0.38100875  0.41279964  0.48266236    -0.07200
C672        C  0.44459180  0.28546363  0.46692851     0.91900
O673        O  0.47199896  0.29641275  0.35590676    -0.83500
C674        C  0.47823379  0.30640281  0.32520652     0.92000
O675        O  0.29334677  0.34738162  0.47400839    -0.83400
Mg676      Mg  0.33781058  0.45696806  0.39031580     1.58200
O677        O  0.44931854  0.29133193  0.43474018    -0.81800
O678        O  0.34956404  0.47195553  0.30077591    -0.83500
C679        C  0.53633352  0.49784768  0.25595110     0.79500
N680        N  0.51735566  0.47306768  0.27270231    -0.78800
C681        C  0.48216411  0.47257120  0.27026169     0.82000
N682        N  0.46595322  0.49720198  0.25123020    -0.78700
C683        C  0.48420129  0.52206963  0.23431090     0.82000
N684        N  0.51948680  0.52231254  0.23662232    -0.80500
C685        C  0.50040797  0.75139074  0.96336015     0.79500
N686        N  0.47457106  0.73221523  0.97856442    -0.78800
C687        C  0.47229893  0.73059745  0.01387137     0.82000
N688        N  0.49544848  0.74780062  0.03330787    -0.78700
C689        C  0.52098968  0.76659718  0.01905063     0.82000
N690        N  0.52354936  0.76870081  0.98395630    -0.80500
O691        O  0.38123280  0.67435986  0.09094526    -0.89100
C692        C  0.36882797  0.58224897  0.04316604     0.87000
Mg693      Mg  0.42846371  0.68567423  0.11622825     1.58100
O694        O  0.32336945  0.59045146  0.12031990    -0.88800
O695        O  0.32586818  0.66925854  0.10218251    -0.76100
C696        C  0.46502658  0.54777650  0.21321061     0.92000
O697        O  0.43630746  0.62728012  0.05210071    -0.75900
O698        O  0.48058298  0.57395871  0.20046292    -0.83400
Mg699      Mg  0.38525961  0.65623442  0.03886146     1.58000
C700        C  0.32155285  0.51854304  0.19388154     0.91900
O701        O  0.33480229  0.68936887  0.02587151    -0.81700
H702        H  0.29003169  0.61659388  0.14999658    -0.07000
C703        C  0.41588142  0.54017667  0.12625077     0.86900
O704        O  0.40435115  0.67179982  0.16914292    -0.76200
O705        O  0.35831985  0.61026245  0.05483501    -0.89000
O706        O  0.31119629  0.52374888  0.16300532    -0.81800
C707        C  0.28220290  0.53689448  0.05450952     0.92100
C708        C  0.30338761  0.67983546  0.02207391     0.91900
Mg709      Mg  0.38347048  0.57141596  0.18906958     1.58000
O710        O  0.43268880  0.54282911  0.20833821    -0.81700
O711        O  0.33257153  0.59941899  0.17563222    -0.75900
O712        O  0.28755806  0.56906350  0.04878177    -0.81800
O713        O  0.41832447  0.70063221  0.01875561    -0.83500
O714        O  0.48003056  0.65720505  0.18452812    -0.81800
C715        C  0.31410887  0.60242860  0.14853247     0.86400
O716        O  0.41189234  0.61588536  0.17535688    -0.89000
O717        O  0.38873918  0.55267796  0.13788267    -0.89100
O718        O  0.44479283  0.55593424  0.12855625    -0.76100
Mg719      Mg  0.30877825  0.61834575  0.07580848     1.58000
O720        O  0.29417740  0.52182724  0.08120100    -0.83500
H721        H  0.35509176  0.71023715  0.11756027    -0.07200
O722        O  0.44533246  0.63414652  0.10814902    -0.88800
H723        H  0.47813429  0.60810355  0.07768591    -0.07000
H724        H  0.38975893  0.64495834  0.21202924    -0.07200
C725        C  0.45437189  0.62276837  0.07947071     0.86300
C726        C  0.35429898  0.68581816  0.10388397     0.86900
C727        C  0.40177333  0.64404373  0.18673728     0.87000
H728        H  0.41487203  0.51545354  0.11312474    -0.07200
O729        O  0.36637507  0.55401843  0.06019240    -0.76200
Mg730      Mg  0.46209886  0.60699983  0.15457285     1.58000
H731        H  0.38127256  0.58191041  0.01808062    -0.07200
C732        C  0.44630480  0.71032158  0.03298234     0.91900
O733        O  0.47818490  0.69798967  0.14401032    -0.83500
C734        C  0.48547569  0.68828687  0.17465966     0.92000
O735        O  0.29389105  0.64917437  0.02946711    -0.83400
Mg736      Mg  0.34100665  0.53890034  0.11225802     1.58200
O737        O  0.45272298  0.70406458  0.06487126    -0.81800
O738        O  0.35243668  0.52511547  0.20305184    -0.83500
C739        C  0.24347401  0.53168753  0.50251761     0.79500
N740        N  0.22887098  0.51320201  0.52883596    -0.78800
C741        C  0.23108220  0.47806561  0.52970641     0.82000
N742        N  0.24754690  0.46124151  0.50373952    -0.78700
C743        C  0.26226634  0.47901281  0.47718675     0.82000
N744        N  0.26039454  0.51438658  0.47668033    -0.80500
O745        O  0.60985245  0.86562705  0.05223828    -0.89100
C746        C  0.60093024  0.81196523  0.14135590     0.87000
Mg747      Mg  0.65479897  0.89577373  0.04283677     1.58100
O748        O  0.54584744  0.88372141  0.13706842    -0.88800
O749        O  0.55336899  0.87120541  0.05735044    -0.76100
C750        C  0.67835022  0.98107089  0.18907571     0.92000
O751        O  0.66866681  0.82993384  0.09916903    -0.75900
O752        O  0.69435201  0.97554120  0.16086878    -0.83400
Mg753      Mg  0.61979663  0.81375099  0.06881671     1.58000
C754        C  0.53624197  0.95114046  0.21359344     0.91900
O755        O  0.57325862  0.79528499  0.03537817    -0.81700
H756        H  0.51087731  0.91111979  0.11046264    -0.07000
C757        C  0.63615081  0.89437962  0.18800436     0.86900
O758        O  0.62574673  0.94542282  0.05831262    -0.76200
O759        O  0.59017545  0.82489502  0.11402584    -0.89000
O760        O  0.52961970  0.91925999  0.20836923    -0.81800
C761        C  0.51703833  0.80805329  0.18626492     0.92100
C762        C  0.54240090  0.78670458  0.04295516     0.91900
Mg763      Mg  0.59947663  0.95589825  0.15877893     1.58000
O764        O  0.64620808  0.97399555  0.19248455    -0.81700
O765        O  0.55124709  0.93974721  0.12807861    -0.75900
O766        O  0.52269920  0.80657519  0.15368148    -0.81800
O767        O  0.65498662  0.79960823  0.02426555    -0.83500
O768        O  0.70168881  0.96468322  0.07809663    -0.81800
C769        C  0.53470443  0.91138237  0.12514210     0.86400
O770        O  0.63089991  0.94754755  0.11481541    -0.89000
O771        O  0.60825760  0.90465298  0.17591521    -0.89100
O772        O  0.66495320  0.90019744  0.17305032    -0.76100
Mg773      Mg  0.53823789  0.83973214  0.10613312     1.58000
O774        O  0.52170267  0.83581230  0.20326691    -0.83500
H775        H  0.58134765  0.89204912  0.01791300    -0.07200
O776        O  0.67159901  0.88652264  0.09423372    -0.88800
H777        H  0.70769532  0.85896901  0.11916617    -0.07000
H778        H  0.60740672  0.98493692  0.08769332    -0.07200
C779        C  0.68383814  0.85871386  0.10452856     0.86300
C780        C  0.58172710  0.87665307  0.04135071     0.86900
C781        C  0.62108810  0.96054164  0.08718168     0.87000
H782        H  0.63595414  0.87931089  0.21164607    -0.07200
O783        O  0.59546269  0.82601781  0.17064007    -0.76200
Mg784      Mg  0.68218111  0.93113803  0.12483537     1.58000
H785        H  0.61603177  0.78843348  0.14023416    -0.07200
C786        C  0.68267242  0.81606336  0.01784910     0.91900
O787        O  0.70091610  0.92911959  0.03265642    -0.83500
C788        C  0.70946410  0.95759096  0.04679483     0.92000
O789        O  0.52866102  0.79451569  0.07177332    -0.83400
Mg790      Mg  0.56412473  0.87362279  0.18834806     1.58200
O791        O  0.68578847  0.84822236  0.02475451    -0.81800
O792        O  0.56367649  0.96550556  0.20235855    -0.83500
C793        C  0.74367095  0.74677656  0.98984794     0.79500
N794        N  0.71377077  0.76291923  0.99959839    -0.78800
C795        C  0.71308807  0.79780802  0.00423397     0.82000
N796        N  0.74211547  0.81636682  0.99895709    -0.78700
C797        C  0.77203368  0.80130386  0.98912256     0.82000
N798        N  0.77302695  0.76616514  0.98451071    -0.80500
O799        O  0.87917197  0.17359141  0.58475316    -0.89100
C800        C  0.87199067  0.07845960  0.54032051     0.87000
Mg801      Mg  0.92294325  0.18852147  0.61341568     1.58100
O802        O  0.82218116  0.09023298  0.61466069    -0.88800
O803        O  0.82326515  0.16818563  0.59175073    -0.76100
C804        C  0.96219561  0.05282347  0.71107637     0.92000
O805        O  0.93945669  0.12804292  0.55136184    -0.75900
O806        O  0.97680592  0.08001047  0.69968736    -0.83400
Mg807      Mg  0.88810553  0.15326085  0.53429218     1.58000
C808        C  0.81820316  0.02148279  0.69129769     0.91900
O809        O  0.83802692  0.18264127  0.51676055    -0.81700
H810        H  0.78738398  0.11709933  0.64198171    -0.07000
C811        C  0.91498522  0.04354705  0.62428413     0.86900
O812        O  0.89569402  0.17393984  0.66421812    -0.76200
O813        O  0.86117322  0.10694080  0.55047869    -0.89000
O814        O  0.80773687  0.02628721  0.66040280    -0.81800
C815        C  0.78462807  0.03293096  0.55013609     0.92100
C816        C  0.80691707  0.17313375  0.51129337     0.91900
Mg817      Mg  0.87988646  0.07386912  0.68595624     1.58000
O818        O  0.93003637  0.04683638  0.70578164    -0.81700
O819        O  0.82873198  0.10074634  0.67011471    -0.75900
O820        O  0.79119114  0.06462510  0.54350538    -0.81800
O821        O  0.92020780  0.19925970  0.51598754    -0.83500
O822        O  0.97325524  0.16239841  0.68493815    -0.81800
C823        C  0.81159439  0.10307464  0.64203640     0.86400
O824        O  0.90710648  0.11899237  0.67270774    -0.89000
O825        O  0.88702066  0.05456323  0.63556866    -0.89100
O826        O  0.94315608  0.06056885  0.62729140    -0.76100
Mg827      Mg  0.80979272  0.11530682  0.56780499     1.58000
O828        O  0.79464363  0.01860936  0.57798841    -0.83500
H829        H  0.85038604  0.21088628  0.60614639    -0.07200
O830        O  0.94368919  0.13828335  0.60731625    -0.88800
H831        H  0.98087645  0.11411665  0.58062403    -0.07000
H832        H  0.88053319  0.14725608  0.70691497    -0.07200
C833        C  0.95588299  0.12669097  0.57996952     0.86300
C834        C  0.85111837  0.18547025  0.59443360     0.86900
C835        C  0.89429462  0.14662274  0.68254349     0.87000
H836        H  0.91537236  0.01897992  0.61082634    -0.07200
O837        O  0.86788195  0.05078441  0.55797573    -0.76200
Mg838      Mg  0.95841793  0.11203445  0.65405298     1.58000
H839        H  0.88578258  0.07713125  0.51597758    -0.07200
C840        C  0.94579954  0.21266552  0.53178160     0.91900
O841        O  0.96824756  0.20413540  0.64547995    -0.83500
C842        C  0.97649166  0.19394694  0.67575390     0.92000
O843        O  0.79678716  0.14263817  0.51836650    -0.83400
Mg844      Mg  0.84013908  0.03830090  0.60975238     1.58200
O845        O  0.95053510  0.20832175  0.56424412    -0.81800
O846        O  0.84965358  0.02662719  0.69946239    -0.83500
C847        C  0.74332628  0.01108377  0.75263307     0.79500
N848        N  0.76039627  0.01581679  0.72163523    -0.78800
C849        C  0.79541237  0.01108925  0.72016611     0.82000
N850        N  0.81238574  0.00217759  0.74907304    -0.78700
C851        C  0.79668365  0.99813850  0.77971680     0.82000
N852        N  0.76180405  0.00241100  0.78181149    -0.80500
O853        O  0.87435700  0.82766896  0.90646559    -0.89100
C854        C  0.86861781  0.92015508  0.95594223     0.87000
Mg855      Mg  0.91918917  0.81372755  0.87866806     1.58100
O856        O  0.81950686  0.91486324  0.88057832    -0.88800
O857        O  0.81882916  0.83566365  0.89804390    -0.76100
C858        C  0.96066706  0.95147446  0.78507206     0.92000
O859        O  0.93388275  0.87134918  0.94267243    -0.75900
O860        O  0.97474885  0.92369439  0.79560984    -0.83400
Mg861      Mg  0.88204111  0.84531284  0.95787462     1.58000
C862        C  0.81941570  0.98682798  0.80805878     0.91900
O863        O  0.83081441  0.81512114  0.97263259    -0.81700
H864        H  0.78384560  0.89085029  0.85165414    -0.07000
C865        C  0.91444616  0.95909441  0.87260454     0.86900
O866        O  0.89261607  0.82998816  0.82767010    -0.76200
O867        O  0.85654812  0.89284042  0.94404864    -0.89000
O868        O  0.80888679  0.98163545  0.83885027    -0.81800
C869        C  0.78327826  0.96978061  0.94824407     0.92100
C870        C  0.79984043  0.82515994  0.97803534     0.91900
Mg871      Mg  0.87838583  0.93190281  0.81022832     1.58000
O872        O  0.92881874  0.95811229  0.79086716    -0.81700
O873        O  0.82630310  0.90640206  0.82478637    -0.75900
O874        O  0.78777394  0.93725524  0.95255666    -0.81800
O875        O  0.91345595  0.79873234  0.97487020    -0.83500
O876        O  0.97098543  0.84100930  0.80771093    -0.81800
C877        C  0.80868735  0.90378722  0.85250562     0.86400
O878        O  0.90439257  0.88520239  0.82110783    -0.89000
O879        O  0.88613920  0.94866432  0.86164005    -0.89100
O880        O  0.94221513  0.94179751  0.86849177    -0.76100
Mg881      Mg  0.80553430  0.88712516  0.92529804     1.58000
O882        O  0.79514328  0.98549755  0.92184203    -0.83500
H883        H  0.84495077  0.79330889  0.88117067    -0.07200
O884        O  0.93969891  0.86371670  0.88635463    -0.88800
H885        H  0.97570601  0.88746729  0.91509811    -0.07000
H886        H  0.87772304  0.85822615  0.78582406    -0.07200
C887        C  0.95092671  0.87443342  0.91451710     0.86300
C888        C  0.84619589  0.81767625  0.89490402     0.86900
C889        C  0.89135671  0.85798251  0.81029905     0.87000
H890        H  0.91551578  0.98331230  0.88660702    -0.07200
O891        O  0.86655294  0.94886830  0.93969640    -0.76200
Mg892      Mg  0.95585633  0.89075427  0.84022660     1.58000
H893        H  0.88202077  0.91944062  0.98055214    -0.07200
C894        C  0.94099202  0.78784905  0.96058389     0.91900
O895        O  0.96501916  0.79949848  0.84719014    -0.83500
C896        C  0.97474595  0.80966760  0.81735596     0.92000
O897        O  0.79075411  0.85628710  0.97227534    -0.83400
Mg898      Mg  0.84000417  0.96553699  0.88868950     1.58200
O899        O  0.94718664  0.79325762  0.92845805    -0.81800
O900        O  0.85056310  0.98094285  0.79954773    -0.83500
O901        O  0.11374788  0.67960804  0.91304301    -0.89100
C902        C  0.12049161  0.58544004  0.95911569     0.87000
Mg903      Mg  0.06893985  0.69273772  0.88483009     1.58100
O904        O  0.17262043  0.59492123  0.88591733    -0.88800
O905        O  0.16966629  0.67296868  0.90611471    -0.76100
C906        C  0.03568071  0.55577793  0.78701023     0.92000
O907        O  0.05433296  0.63379404  0.94808423    -0.75900
O908        O  0.02047119  0.58265862  0.79833846    -0.83400
Mg909      Mg  0.10546875  0.66065369  0.96410566     1.58000
C910        C  0.17802763  0.52541074  0.81016631     0.91900
O911        O  0.15616502  0.69172134  0.97983574    -0.81700
H912        H  0.20742571  0.62249769  0.85920135    -0.07000
C913        C  0.07992029  0.54727550  0.87459280     0.86900
O914        O  0.09627256  0.67893494  0.83379785    -0.76200
O915        O  0.13205090  0.61363991  0.94885066    -0.89000
O916        O  0.18707308  0.52923177  0.84169953    -0.81800
C917        C  0.20795228  0.53846367  0.95302768     0.92100
C918        C  0.18659727  0.68054681  0.98597380     0.91900
Mg919      Mg  0.11615087  0.57908996  0.81374549     1.58000
O920        O  0.06777524  0.55034724  0.79261710    -0.81700
O921        O  0.16624549  0.60663729  0.83063888    -0.75900
O922        O  0.20214577  0.57038587  0.95947210    -0.81800
O923        O  0.07239698  0.70655444  0.98164360    -0.83500
O924        O  0.02198451  0.66503564  0.81329106    -0.81800
C925        C  0.18330651  0.60825777  0.85876967     0.86400
O926        O  0.08774406  0.62327228  0.82705100    -0.89000
O927        O  0.10789924  0.55889566  0.86382247    -0.89100
O928        O  0.05159688  0.56391081  0.87153016    -0.76100
Mg929      Mg  0.18354758  0.62090168  0.93248491     1.58000
O930        O  0.19781427  0.52441116  0.92507208    -0.83500
H931        H  0.14304315  0.71502823  0.88901902    -0.07200
O932        O  0.05016022  0.64176719  0.89172441    -0.88800
H933        H  0.01360838  0.61722434  0.91914877    -0.07000
H934        H  0.11248588  0.65201129  0.79170901    -0.07200
C935        C  0.03819187  0.63062466  0.91941952     0.86300
C936        C  0.14196830  0.69037416  0.90235572     0.86900
C937        C  0.09906815  0.65125471  0.81627657     0.87000
H938        H  0.07969603  0.52255379  0.88782690    -0.07200
O939        O  0.12462992  0.55749454  0.94199877    -0.76200
Mg940      Mg  0.03651174  0.61505075  0.84461125     1.58000
H941        H  0.10597412  0.58461238  0.98305291    -0.07200
C942        C  0.04552831  0.71746666  0.96597270     0.91900
O943        O  0.02227303  0.70563065  0.85393060    -0.83500
C944        C  0.01699268  0.69614936  0.82286205     0.92000
O945        O  0.19412561  0.64892534  0.98142546    -0.83400
Mg946      Mg  0.15370571  0.54341464  0.89134883     1.58200
O947        O  0.04070944  0.71180030  0.93378347    -0.81800
O948        O  0.14792982  0.53370434  0.79984121    -0.83500
C949        C  0.99705029  0.74945625  0.74407417     0.79500
N950        N  0.98869987  0.78024668  0.76015637    -0.78800
C951        C  0.99000504  0.78220086  0.79558051     0.80400
N952        N  0.99916103  0.75405400  0.81368232    -0.78700
C953        C  0.00625039  0.72362264  0.79887347     0.82000
N954        N  0.00531219  0.72098295  0.76375140    -0.80500
C955        C  0.96147174  0.50374947  0.75429349     0.79500
N956        N  0.97845012  0.47805086  0.73692118    -0.78800
C957        C  0.01375867  0.47797975  0.73529136     0.82000
N958        N  0.03191456  0.50368607  0.75100167    -0.78700
C959        C  0.01544001  0.52946048  0.76810897     0.82000
N960        N  0.98031155  0.52930245  0.76975571    -0.80500
C961        C  0.25290572  0.50734402  0.75055795     0.79500
N962        N  0.23410430  0.49659842  0.72227530    -0.78800
C963        C  0.19912457  0.49322581  0.72465477     0.82000
N964        N  0.18354827  0.50041438  0.75474682    -0.78700
C965        C  0.20076424  0.51145493  0.78280029     0.82000
N966        N  0.23597151  0.51519811  0.78101719    -0.80500
C967        C  0.74149080  0.96339955  0.49821279     0.79500
N968        N  0.76088410  0.97891167  0.52356683    -0.78800
C969        C  0.76396053  0.01405760  0.52441925     0.82000
N970        N  0.74799076  0.03328034  0.50016348    -0.78700
C971        C  0.72896406  0.01880752  0.47487196     0.82000
N972        N  0.72530664  0.98364723  0.47384685    -0.80500
C973        C  0.99517252  0.25668822  0.46113397     0.79500
N974        N  0.02006053  0.27289163  0.48038419    -0.78800
C975        C  0.02052784  0.26959130  0.51553347     0.82000
N976        N  0.99595820  0.25035355  0.53133803    -0.78700
C977        C  0.97115959  0.23393360  0.51281036     0.82000
N978        N  0.97078310  0.23696800  0.47758507    -0.80500
C979        C  0.99985523  0.24711414  0.75407691     0.79500
N980        N  0.99132516  0.21854722  0.73449702    -0.78800
C981        C  0.98856365  0.22134885  0.69941273     0.82000
N982        N  0.99372417  0.25221294  0.68451929    -0.78700
C983        C  0.00215862  0.28069046  0.70243023     0.82000
N984        N  0.00562114  0.27842970  0.73769164    -0.80500
C985        C  0.50636561  0.74001733  0.25430721     0.79500
N986        N  0.51022377  0.77191969  0.23929028    -0.78800
C987        C  0.50800982  0.77557541  0.20424771     0.82000
N988        N  0.50191801  0.74744251  0.18457268    -0.78700
C989        C  0.49759461  0.71565683  0.19857596     0.82000
N990        N  0.49992961  0.71171614  0.23373486    -0.80500
C991        C  0.75217567  0.00280982  0.24694075     0.79500
N992        N  0.73521634  0.00829184  0.27752810    -0.78800
C993        C  0.69986304  0.00644063  0.27900641     0.82000
N994        N  0.68171317  0.99886076  0.24986254    -0.78700
C995        C  0.69816475  0.99320279  0.21939289     0.82000
N996        N  0.73329569  0.99537224  0.21805165    -0.80500
C997        C  0.24444285  0.75600615  0.00717733     0.79500
N998        N  0.21477510  0.73800463  0.99917411    -0.78800
C999        C  0.21567605  0.70286167  0.99671020     0.82000
N1000       N  0.24575621  0.68638438  0.00200934    -0.78700
C1001       C  0.27520747  0.70293555  0.01020301     0.82000
N1002       N  0.27482104  0.73824160  0.01302425    -0.80500
C1003       C  0.75705686  0.25406405  0.49334535     0.79500
N1004       N  0.72534244  0.23975311  0.48624059    -0.78800
C1005       C  0.72128178  0.20462821  0.48587929     0.82000
N1006       N  0.74879150  0.18421510  0.49230928    -0.78700
C1007       C  0.78026595  0.19756188  0.49936658     0.82000
N1008       N  0.78449342  0.23261282  0.50006923    -0.80500
C1009       C  0.24478030  0.49355469  0.24784142     0.79500
N1010       N  0.26145379  0.48698843  0.27863584    -0.78800
C1011       C  0.29652864  0.49055017  0.28048324     0.82000
N1012       N  0.31407557  0.50010140  0.25206622    -0.78700
C1013       C  0.29863593  0.50611571  0.22158972     0.82000
N1014       N  0.26365378  0.50298385  0.21918110    -0.80500
C1015       C  0.24309022  0.46410070  0.00418302     0.79500
N1016       N  0.26131176  0.48162121  0.02896540    -0.78800
C1017       C  0.26200284  0.51700414  0.02892154     0.82000
N1018       N  0.24485879  0.53463270  0.00393308    -0.78700
C1019       C  0.22696226  0.51780139  0.97898683     0.82000
N1020       N  0.22589411  0.48248892  0.97924483    -0.80500
C1021       C  0.46162044  0.99513924  0.25768808     0.79500
N1022       N  0.47897660  0.97101525  0.23807069    -0.78800
C1023       C  0.51408720  0.97351642  0.23472161     0.82000
N1024       N  0.53084309  0.99973465  0.24992315    -0.78700
C1025       C  0.51468402  0.02355850  0.26901644     0.82000
N1026       N  0.47982343  0.02123872  0.27362103    -0.80500
C1027       C  0.49619269  0.25608223  0.24459429     0.79500
N1028       N  0.50398873  0.22461665  0.25911703    -0.78800
C1029       C  0.50462060  0.22096127  0.29428111     0.82000
N1030       N  0.49759834  0.24851227  0.31438627    -0.78700
C1031       C  0.48989747  0.27970897  0.30079492     0.82000
N1032       N  0.48914254  0.28368322  0.26572194    -0.80500
C1033       C  0.24276196  0.24098928  0.49625309     0.79500
N1034       N  0.21401729  0.25918808  0.50678908    -0.78800
C1035       C  0.21572677  0.29432714  0.50965987     0.82000
N1036       N  0.24551680  0.31044761  0.50227127    -0.78700
C1037       C  0.27399272  0.29361856  0.49205859     0.82000
N1038       N  0.27292300  0.25845966  0.48879561    -0.80500
C1039       C  0.99157653  0.75561840  0.03656003     0.79500
N1040       N  0.96638895  0.77119561  0.01717660    -0.78800
C1041       C  0.96705252  0.76954187  0.98189579     0.82000
N1042       N  0.99326514  0.75258272  0.96606571    -0.78700
C1043       C  0.01857523  0.73694897  0.98475348     0.82000
N1044       N  0.01764886  0.73836074  0.02006517    -0.80500
C1045       C  0.74065231  0.03801620  0.00299225     0.79500
N1046       N  0.72502958  0.01697800  0.02695738    -0.78800
C1047       C  0.72882992  0.98196790  0.02501126     0.82000
N1048       N  0.74755825  0.96820736  0.99909099    -0.78700
C1049       C  0.76311768  0.98812220  0.97504941     0.82000
N1050       N  0.75980533  0.02331511  0.97688966    -0.80500
C1051       C  0.03506950  0.00325178  0.75163284     0.79500
N1052       N  0.01651121  0.97801104  0.76814044    -0.78800
C1053       C  0.98135560  0.97718840  0.76596928     0.82000
N1054       N  0.96469938  0.00185274  0.74761598    -0.78700
C1055       C  0.98235712  0.02717162  0.73103238     0.82000
N1056       N  0.01774790  0.02789504  0.73287101    -0.80500
C1057       C  0.70631478  0.50901004  0.24280865    -0.06000
C1058       C  0.69049175  0.52114929  0.21231422    -0.05900
C1059       C  0.65433957  0.52267660  0.20925869    -0.24000
C1060       C  0.63295395  0.51113742  0.23633266     0.18200
C1061       C  0.64839774  0.49832000  0.26697682     0.15400
C1062       C  0.68492410  0.49800890  0.27036010    -0.19100
C1063       C  0.62700595  0.48542349  0.29343849    -0.20900
C1064       C  0.59087643  0.48506604  0.28952627    -0.13500
C1065       C  0.57501194  0.49836635  0.25948305     0.03200
C1066       C  0.59645039  0.51168774  0.23300532    -0.25600
H1067       H  0.70622265  0.52980567  0.19073951     0.08300
H1068       H  0.64313396  0.53240329  0.18550672     0.11900
H1069       H  0.69665539  0.48817892  0.29383040     0.11800
H1070       H  0.63820421  0.47525705  0.31701422     0.11600
H1071       H  0.57522665  0.47470620  0.31039344     0.12100
H1072       H  0.58482161  0.52164658  0.20954706     0.14100
C1073       C  0.76188461  0.29269781  0.49329288    -0.06000
C1074       C  0.79529515  0.30734418  0.49227780    -0.05900
C1075       C  0.80008841  0.34341516  0.49097640    -0.24000
C1076       C  0.77157144  0.36595378  0.49115019     0.18200
C1077       C  0.73790479  0.35168416  0.49302957     0.15400
C1078       C  0.73324835  0.31535288  0.49380368    -0.19100
C1079       C  0.70933251  0.37402218  0.49432231    -0.20900
C1080       C  0.71398918  0.41000343  0.49413273    -0.13500
C1081       C  0.74716338  0.42471739  0.49182009     0.03200
C1082       C  0.77604068  0.40243294  0.48996386    -0.25600
H1083       H  0.81794127  0.29085146  0.49193725     0.08300
H1084       H  0.82613069  0.35365959  0.48986604     0.11900
H1085       H  0.70733659  0.30480050  0.49501607     0.11800
H1086       H  0.68336243  0.36368457  0.49592468     0.11600
H1087       H  0.69142213  0.42655030  0.49576301     0.12100
H1088       H  0.80179185  0.41341564  0.48874055     0.14100
C1089       C  0.79210025  0.48790225  0.74412076    -0.06000
C1090       C  0.80790366  0.46699185  0.71895688    -0.05900
C1091       C  0.84405691  0.46483445  0.71660357    -0.24000
C1092       C  0.86523944  0.48437362  0.73879867     0.18200
C1093       C  0.84960158  0.50584473  0.76395842     0.15400
C1094       C  0.81318463  0.50701003  0.76690592    -0.19100
C1095       C  0.87064647  0.52619425  0.78542758    -0.20900
C1096       C  0.90670163  0.52541166  0.78198770    -0.13500
C1097       C  0.92283470  0.50392548  0.75735254     0.03200
C1098       C  0.90170365  0.48319153  0.73591059    -0.25600
H1099       H  0.79216143  0.45201088  0.70120493     0.08300
H1100       H  0.85541276  0.44828288  0.69711950     0.11900
H1101       H  0.80125257  0.52347865  0.78613842     0.11800
H1102       H  0.85923372  0.54294149  0.80471638     0.11600
H1103       H  0.92201557  0.54163216  0.79899468     0.12100
H1104       H  0.91349617  0.46668520  0.71664027     0.14100
C1105       C  0.29143596  0.51107518  0.74722896    -0.06000
C1106       C  0.30584227  0.52249037  0.71571872    -0.05900
C1107       C  0.34183192  0.52420625  0.71093396    -0.24000
C1108       C  0.36457288  0.51361559  0.73728548     0.18200
C1109       C  0.35056635  0.50195563  0.76908685     0.15400
C1110       C  0.31419326  0.50142217  0.77416997    -0.19100
C1111       C  0.37319265  0.49012662  0.79496563    -0.20900
C1112       C  0.40905686  0.48931540  0.78927342    -0.13500
C1113       C  0.42360956  0.50108830  0.75794351     0.03200
C1114       C  0.40096621  0.51373839  0.73209316    -0.25600
H1115       H  0.28910432  0.53015297  0.69452915     0.08300
H1116       H  0.35183408  0.53312808  0.68634458     0.11900
H1117       H  0.30364672  0.49216724  0.79841515     0.11800
H1118       H  0.36314160  0.48095869  0.81944304     0.11600
H1119       H  0.42559468  0.47962417  0.80977760     0.12100
H1120       H  0.41150771  0.52261769  0.70770702     0.14100
C1121       C  0.73786777  0.92477613  0.49745657    -0.06000
C1122       C  0.70844916  0.90899258  0.48283911    -0.05900
C1123       C  0.70490911  0.87276089  0.48228702    -0.24000
C1124       C  0.73115411  0.85134303  0.49558200     0.18200
C1125       C  0.76106549  0.86685923  0.50987029     0.15400
C1126       C  0.76395086  0.90330486  0.51131867    -0.19100
C1127       C  0.78798291  0.84566185  0.52191138    -0.20900
C1128       C  0.78558493  0.80955435  0.51936376    -0.13500
C1129       C  0.75587464  0.79358138  0.50568963     0.03200
C1130       C  0.72838074  0.81476320  0.49422850    -0.25600
H1131       H  0.68785977  0.92473841  0.47213734     0.08300
H1132       H  0.68185537  0.86151459  0.47106859     0.11900
H1133       H  0.78690542  0.91491171  0.52239928     0.11800
H1134       H  0.81115134  0.85700516  0.53279317     0.11600
H1135       H  0.80704950  0.79395917  0.52845462     0.12100
H1136       H  0.70550659  0.80287711  0.48327826     0.14100
C1137       C  0.50935337  0.73656457  0.29282070    -0.06000
C1138       C  0.53038296  0.71092002  0.30784269    -0.05900
C1139       C  0.53452551  0.70884177  0.34403140    -0.24000
C1140       C  0.51694793  0.73184680  0.36613733     0.18200
C1141       C  0.49531681  0.75734789  0.35130628     0.15400
C1142       C  0.49212797  0.75993220  0.31489655    -0.19100
C1143       C  0.47698483  0.77979297  0.37313817    -0.20900
C1144       C  0.47976915  0.77697307  0.40922559    -0.13500
C1145       C  0.50135121  0.75201230  0.42471609     0.03200
C1146       C  0.52024822  0.72959831  0.40271097    -0.25600
H1147       H  0.54426631  0.69288983  0.29148423     0.08300
H1148       H  0.55126030  0.68911204  0.35470318     0.11900
H1149       H  0.47581232  0.77977593  0.30371818     0.11800
H1150       H  0.46021975  0.79942969  0.36230790     0.11600
H1151       H  0.46502201  0.79474462  0.42508632     0.12100
H1152       H  0.53689695  0.71009658  0.41392890     0.14100
C1153       C  0.49864093  0.73925400  0.79299210    -0.06000
C1154       C  0.48469346  0.70903723  0.80781266    -0.05900
C1155       C  0.48160294  0.70554294  0.84386841    -0.24000
C1156       C  0.49321174  0.73190027  0.86608315     0.18200
C1157       C  0.50829276  0.76198615  0.85159919     0.15400
C1158       C  0.51036306  0.76578413  0.81520689    -0.19100
C1159       C  0.52116296  0.78772641  0.87379337    -0.20900
C1160       C  0.51884997  0.78386456  0.90984287    -0.13500
C1161       C  0.50300550  0.75455451  0.92475111     0.03200
C1162       C  0.49014600  0.72858220  0.90247829    -0.25600
H1163       H  0.47541815  0.68827346  0.79138331     0.08300
H1164       H  0.47021897  0.68219042  0.85435304     0.11900
H1165       H  0.52153822  0.78901924  0.80421985     0.11800
H1166       H  0.53309147  0.81080672  0.86330694     0.11600
H1167       H  0.52904735  0.80429531  0.92614112     0.12100
H1168       H  0.47832552  0.70564329  0.91340765     0.14100
C1169       C  0.73659972  0.07661252  0.00538829    -0.06000
C1170       C  0.70873363  0.09144209  0.02367014    -0.05900
C1171       C  0.70513504  0.12760514  0.02637406    -0.24000
C1172       C  0.72975236  0.14994789  0.01144794     0.18200
C1173       C  0.75811702  0.13533799  0.99357798     0.15400
C1174       C  0.76102127  0.09903148  0.99011990    -0.19100
C1175       C  0.78358665  0.15725789  0.97982765    -0.20900
C1176       C  0.78117920  0.19320080  0.98372959    -0.13500
C1177       C  0.75281562  0.20844777  0.00059240     0.03200
C1178       C  0.72686480  0.18651342  0.01433011    -0.25600
H1179       H  0.68942588  0.07502458  0.03573851     0.08300
H1180       H  0.68331422  0.13804565  0.04041073     0.11900
H1181       H  0.78282428  0.08824518  0.97630587     0.11800
H1182       H  0.80561661  0.14659281  0.96629325     0.11600
H1183       H  0.80147355  0.20929130  0.97291521     0.12100
H1184       H  0.70509428  0.19776455  0.02781815     0.14100
C1185       C  0.20567487  0.00857068  0.74113272    -0.06000
C1186       C  0.19083567  0.01924783  0.70955611    -0.05900
C1187       C  0.15481682  0.02213667  0.70565900    -0.24000
C1188       C  0.13245652  0.01354366  0.73303083     0.18200
C1189       C  0.14689360  0.00257485  0.76488586     0.15400
C1190       C  0.18331959  0.00079124  0.76899696    -0.19100
C1191       C  0.12460108  0.99279341  0.79187946    -0.20900
C1192       C  0.08860418  0.99322437  0.78721272    -0.13500
C1193       C  0.07368268  0.00427014  0.75581882     0.03200
C1194       C  0.09598286  0.01497437  0.72885355    -0.25600
H1195       H  0.20723413  0.02561924  0.68770352     0.08300
H1196       H  0.14446125  0.03052174  0.68101679     0.11900
H1197       H  0.19416880  0.99224822  0.79337828     0.11800
H1198       H  0.13499026  0.98422752  0.81643615     0.11600
H1199       H  0.07225739  0.98500878  0.80850702     0.12100
H1200       H  0.08505957  0.02323031  0.70440907     0.14100
C1201       C  0.99099652  0.75834514  0.07529211    -0.06000
C1202       C  0.97455162  0.78653497  0.09145491    -0.05900
C1203       C  0.97467285  0.79009860  0.12763417    -0.24000
C1204       C  0.99057857  0.76508075  0.14872454     0.18200
C1205       C  0.00630288  0.73605871  0.13299215     0.15400
C1206       C  0.00693428  0.73313437  0.09646291    -0.19100
C1207       C  0.02094869  0.71029923  0.15411157    -0.20900
C1208       C  0.02004296  0.71323937  0.19031698    -0.13500
C1209       C  0.00538231  0.74239285  0.20634718     0.03200
C1210       C  0.99080537  0.76844416  0.18523464    -0.25600
H1211       H  0.96207014  0.80636561  0.07601108     0.08300
H1212       H  0.96221636  0.81236379  0.13909670     0.11900
H1213       H  0.01932893  0.71104074  0.08459036     0.11800
H1214       H  0.03291808  0.68776456  0.14265546     0.11600
H1215       H  0.03148702  0.69288231  0.20588600     0.12100
H1216       H  0.97906881  0.79085081  0.19720398     0.14100
C1217       C  0.24011537  0.57030105  0.50219381    -0.06000
C1218       C  0.21097521  0.58612184  0.51727510    -0.05900
C1219       C  0.20754520  0.62228655  0.51804514    -0.24000
C1220       C  0.23360690  0.64369831  0.50444121     0.18200
C1221       C  0.26331194  0.62820909  0.48972706     0.15400
C1222       C  0.26611873  0.59170782  0.48810436    -0.19100
C1223       C  0.29002686  0.64952765  0.47738651    -0.20900
C1224       C  0.28751227  0.68565204  0.47976754    -0.13500
C1225       C  0.25790487  0.70155406  0.49367672     0.03200
C1226       C  0.23075097  0.68026140  0.50575183    -0.25600
H1227       H  0.19051134  0.57040805  0.52832029     0.08300
H1228       H  0.18468439  0.63348600  0.52964778     0.11900
H1229       H  0.28892085  0.58002505  0.47684305     0.11800
H1230       H  0.31308244  0.63827127  0.46623511     0.11600
H1231       H  0.30876313  0.70132280  0.47025860     0.12100
H1232       H  0.20798928  0.69206605  0.51696545     0.14100
C1233       C  0.26176895  0.07156084  0.49677635    -0.06000
C1234       C  0.29292665  0.08774782  0.50646318    -0.05900
C1235       C  0.29604747  0.12395503  0.50652384    -0.24000
C1236       C  0.26769742  0.14496259  0.49782406     0.18200
C1237       C  0.23613300  0.12911796  0.48821169     0.15400
C1238       C  0.23353842  0.09258113  0.48706364    -0.19100
C1239       C  0.20743020  0.15010668  0.48072316    -0.20900
C1240       C  0.20974931  0.18626386  0.48344949    -0.13500
C1241       C  0.24100492  0.20245465  0.49279158     0.03200
C1242       C  0.27015980  0.18148482  0.49939943    -0.25600
H1243       H  0.31513439  0.07228739  0.51382914     0.08300
H1244       H  0.32041821  0.13549591  0.51399888     0.11900
H1245       H  0.20930994  0.08056839  0.47982384     0.11800
H1246       H  0.18301696  0.13856013  0.47337060     0.11600
H1247       H  0.18698395  0.20167190  0.47797050     0.12100
H1248       H  0.29432860  0.19347518  0.50687501     0.14100
C1249       C  0.01360256  0.74972703  0.57392238    -0.06000
C1250       C  0.03595435  0.77442141  0.58885393    -0.05900
C1251       C  0.03674305  0.77986214  0.62479033    -0.24000
C1252       C  0.01554026  0.76039482  0.64702366     0.18200
C1253       C  0.99400121  0.73445933  0.63271998     0.15400
C1254       C  0.99289024  0.72948692  0.59636779    -0.19100
C1255       C  0.97388358  0.71396379  0.65508904    -0.20900
C1256       C  0.97495073  0.71922178  0.69104806    -0.13500
C1257       C  0.99534325  0.74565540  0.70558165     0.03200
C1258       C  0.01566197  0.76627003  0.68327602    -0.25600
H1259       H  0.05242368  0.79033260  0.57263064     0.08300
H1260       H  0.05381732  0.79950257  0.63515826     0.11900
H1261       H  0.97588146  0.70997549  0.58563806     0.11800
H1262       H  0.95749577  0.69369692  0.64481811     0.11600
H1263       H  0.95949808  0.70267562  0.70766204     0.12100
H1264       H  0.03214122  0.78614136  0.69417783     0.14100
C1265       C  0.98727496  0.24536129  0.29136616    -0.06000
C1266       C  0.97413920  0.21499497  0.30668902    -0.05900
C1267       C  0.97124534  0.21188044  0.34270499    -0.24000
C1268       C  0.98231775  0.23879063  0.36442864     0.18200
C1269       C  0.99550607  0.26955867  0.34947496     0.15400
C1270       C  0.99725262  0.27298709  0.31301585    -0.19100
C1271       C  0.00772600  0.29592566  0.37130072    -0.20900
C1272       C  0.00760286  0.29154608  0.40738239    -0.13500
C1273       C  0.99447352  0.26112677  0.42264828     0.03200
C1274       C  0.98127207  0.23500599  0.40082826    -0.25600
H1275       H  0.96614847  0.19338145  0.29067291     0.08300
H1276       H  0.96113875  0.18811366  0.35355401     0.11900
H1277       H  0.00776621  0.29633881  0.30162610     0.11800
H1278       H  0.01798668  0.31964875  0.36048425     0.11600
H1279       H  0.01766793  0.31221526  0.42345459     0.12100
H1280       H  0.97130289  0.21135460  0.41207678     0.14100
C1281       C  0.01150882  0.25951954  0.92487504    -0.06000
C1282       C  0.00860330  0.29260448  0.90985224    -0.05900
C1283       C  0.00688594  0.29696744  0.87380479    -0.24000
C1284       C  0.00714611  0.26819452  0.85161983     0.18200
C1285       C  0.00973394  0.23466607  0.86622559     0.15400
C1286       C  0.01244892  0.23048366  0.90271563    -0.19100
C1287       C  0.00879727  0.20589597  0.84405476    -0.20900
C1288       C  0.00545012  0.21022042  0.80806110    -0.13500
C1289       C  0.00336298  0.24341922  0.79287714     0.03200
C1290       C  0.00433721  0.27242042  0.81518515    -0.25600
H1291       H  0.00735487  0.31533737  0.92623197     0.08300
H1292       H  0.00468352  0.32287022  0.86332980     0.11900
H1293       H  0.01380715  0.20478928  0.91385096     0.11800
H1294       H  0.01043630  0.17995941  0.85454718     0.11600
H1295       H  0.00478107  0.18724932  0.79200503     0.12100
H1296       H  0.00239111  0.29819465  0.80433766     0.14100
C1297       C  0.29165718  0.99265387  0.24470614    -0.06000
C1298       C  0.30711285  0.98639401  0.21225396    -0.05900
C1299       C  0.34310305  0.98396515  0.20865145    -0.24000
C1300       C  0.36490437  0.98828517  0.23736249     0.18200
C1301       C  0.35005662  0.99487371  0.27017025     0.15400
C1302       C  0.31356852  0.99659420  0.27378198    -0.19100
C1303       C  0.37205857  0.00024599  0.29866274    -0.20900
C1304       C  0.40816239  0.99991426  0.29449806    -0.13500
C1305       C  0.42324176  0.99328986  0.26202734     0.03200
C1306       C  0.40129865  0.98686176  0.23359150    -0.25600
H1307       H  0.29127077  0.98308828  0.18932792     0.08300
H1308       H  0.35387464  0.97907263  0.18329680     0.11900
H1309       H  0.30237766  0.00170152  0.29891862     0.11800
H1310       H  0.36138140  0.00535735  0.32401923     0.11600
H1311       H  0.42443055  0.00484928  0.31682439     0.12100
H1312       H  0.41250971  0.98212355  0.20838210     0.14100
C1313       C  0.24292146  0.79459653  0.01045716    -0.06000
C1314       C  0.21289539  0.81049037  0.02351671    -0.05900
C1315       C  0.21027423  0.84664978  0.02575290    -0.24000
C1316       C  0.23732101  0.86797255  0.01408088     0.18200
C1317       C  0.26758421  0.85245283  0.00063661     0.15400
C1318       C  0.27050725  0.81591590  0.99951600    -0.19100
C1319       C  0.29409889  0.87377972  0.98780324    -0.20900
C1320       C  0.29046175  0.90992680  0.98776349    -0.13500
C1321       C  0.26063065  0.92582907  0.00127767     0.03200
C1322       C  0.23426543  0.90449071  0.01491461    -0.25600
H1323       H  0.19130630  0.79481644  0.03224529     0.08300
H1324       H  0.18684147  0.85791694  0.03603870     0.11900
H1325       H  0.29362185  0.80414909  0.98904407     0.11800
H1326       H  0.31742957  0.86251206  0.97728545     0.11600
H1327       H  0.31127642  0.92555115  0.97725566     0.12100
H1328       H  0.21100335  0.91619922  0.02511344     0.14100
C1329       C  0.24065274  0.42536369  0.00490677    -0.06000
C1330       C  0.20957739  0.40904305  0.99523169    -0.05900
C1331       C  0.20639835  0.37285455  0.99558798    -0.24000
C1332       C  0.23459721  0.35185586  0.00471678     0.18200
C1333       C  0.26622138  0.36773141  0.01411546     0.15400
C1334       C  0.26890544  0.40436499  0.01482582    -0.19100
C1335       C  0.29475505  0.34662289  0.02199615    -0.20900
C1336       C  0.29212908  0.31038600  0.02003884    -0.13500
C1337       C  0.26073908  0.29415493  0.01101961     0.03200
C1338       C  0.23183602  0.31528945  0.00386447    -0.25600
H1339       H  0.18736847  0.42442152  0.98771670     0.08300
H1340       H  0.18199101  0.36129391  0.98822048     0.11900
H1341       H  0.29311352  0.41644600  0.02208301     0.11800
H1342       H  0.31926287  0.35812077  0.02914685     0.11600
H1343       H  0.31479872  0.29495169  0.02584469     0.12100
H1344       H  0.20757309  0.30336294  0.99656489     0.14100
C1345       C  0.92278685  0.00044865  0.25972331    -0.06000
C1346       C  0.90756730  0.98813185  0.29056523    -0.05900
C1347       C  0.87149249  0.98723060  0.29482212    -0.24000
C1348       C  0.84939757  0.99799023  0.26803365     0.18200
C1349       C  0.86411275  0.00998378  0.23668570     0.15400
C1350       C  0.90060385  0.01169161  0.23288759    -0.19100
C1351       C  0.84202335  0.01956340  0.20943830    -0.20900
C1352       C  0.80597181  0.01710098  0.21307825    -0.13500
C1353       C  0.79081470  0.00574765  0.24426495     0.03200
C1354       C  0.81291493  0.99647763  0.27188960    -0.25600
H1355       H  0.92369696  0.97929635  0.31176052     0.08300
H1356       H  0.86090167  0.97775202  0.31896348     0.11900
H1357       H  0.91165045  0.02081546  0.20880440     0.11800
H1358       H  0.85261634  0.02862799  0.18513410     0.11600
H1359       H  0.78980249  0.02446700  0.19135809     0.12100
H1360       H  0.80181833  0.98725814  0.29590880     0.14100
C1361       C  0.70491736  0.01515869  0.75499375    -0.06000
C1362       C  0.68945299  0.02607144  0.78613806    -0.05900
C1363       C  0.65334755  0.02811080  0.78939248    -0.24000
C1364       C  0.63173648  0.01833263  0.76182825     0.18200
C1365       C  0.64690159  0.00725061  0.73041902     0.15400
C1366       C  0.68328585  0.00646037  0.72692442    -0.19100
C1367       C  0.62542644  0.99606156  0.70333555    -0.20900
C1368       C  0.58944060  0.99510675  0.70754978    -0.13500
C1369       C  0.57388994  0.00623421  0.73851534     0.03200
C1370       C  0.59530845  0.01846297  0.76546185    -0.25600
H1371       H  0.70538438  0.03305052  0.80816421     0.08300
H1372       H  0.64236211  0.03654836  0.81370142     0.11900
H1373       H  0.69470437  0.99764950  0.70293717     0.11800
H1374       H  0.63647693  0.98733419  0.67915556     0.11600
H1375       H  0.57364229  0.98570222  0.68635354     0.12100
H1376       H  0.58376822  0.02673286  0.78957968     0.14100
C1377       C  0.50623227  0.24562661  0.57384999    -0.06000
C1378       C  0.52279395  0.21671237  0.58862259    -0.05900
C1379       C  0.52485959  0.21255278  0.62469545    -0.24000
C1380       C  0.51106062  0.23764464  0.64706562     0.18200
C1381       C  0.49530772  0.26741079  0.63273357     0.15400
C1382       C  0.49243315  0.27096104  0.59630962    -0.19100
C1383       C  0.48281216  0.29318916  0.65513321    -0.20900
C1384       C  0.48563424  0.28938909  0.69121479    -0.13500
C1385       C  0.50012846  0.25938024  0.70589358     0.03200
C1386       C  0.51281581  0.23348561  0.68347768    -0.25600
H1387       H  0.53363518  0.19676559  0.57218481     0.08300
H1388       H  0.53729753  0.18972670  0.63506897     0.11900
H1389       H  0.47997546  0.29358499  0.58549652     0.11800
H1390       H  0.47092311  0.31631694  0.64477495     0.11600
H1391       H  0.47566116  0.30969492  0.70776807     0.12100
H1392       H  0.52445153  0.21045004  0.69434032     0.14100
C1393       C  0.49656176  0.26065355  0.20611801    -0.06000
C1394       C  0.50633277  0.29259235  0.19148826    -0.05900
C1395       C  0.50862607  0.29681142  0.15545743    -0.24000
C1396       C  0.50040837  0.26936576  0.13307467     0.18200
C1397       C  0.48916550  0.23754382  0.14733761     0.15400
C1398       C  0.48780997  0.23318120  0.18368834    -0.19100
C1399       C  0.47957025  0.21055423  0.12496679    -0.20900
C1400       C  0.48156780  0.21485746  0.08895386    -0.13500
C1401       C  0.49392271  0.24590084  0.07433574     0.03200
C1402       C  0.50328711  0.27319086  0.09673279    -0.25600
H1403       H  0.51314948  0.31420742  0.20801723     0.08300
H1404       H  0.51693569  0.32149873  0.14513128     0.11900
H1405       H  0.47972901  0.20861154  0.19447269     0.11800
H1406       H  0.47058687  0.18610896  0.13528797     0.11600
H1407       H  0.47414674  0.19342146  0.07244617     0.12100
H1408       H  0.51236836  0.29740516  0.08592001     0.14100
C1409       C  0.07525044  0.49314337  0.26085858    -0.06000
C1410       C  0.09023117  0.50429626  0.29214554    -0.05900
C1411       C  0.12621030  0.50492939  0.29652978    -0.24000
C1412       C  0.14820116  0.49526540  0.26932142     0.18200
C1413       C  0.13357451  0.48414404  0.23762503     0.15400
C1414       C  0.09721069  0.48246497  0.23378765    -0.19100
C1415       C  0.15559406  0.47575492  0.20999469    -0.20900
C1416       C  0.19155748  0.47889508  0.21352428    -0.13500
C1417       C  0.20648748  0.48963297  0.24496496     0.03200
C1418       C  0.18452113  0.49733058  0.27303587    -0.25600
H1419       H  0.07396627  0.51257901  0.31342813     0.08300
H1420       H  0.13680281  0.51363110  0.32093780     0.11900
H1421       H  0.08608224  0.47424552  0.20943596     0.11800
H1422       H  0.14501332  0.46732684  0.18548471     0.11600
H1423       H  0.20781225  0.47263862  0.19155634     0.12100
H1424       H  0.19558576  0.50597386  0.29726510     0.14100
C1425       C  0.74335491  0.70842650  0.98466016    -0.06000
C1426       C  0.71454373  0.69245057  0.96906224    -0.05900
C1427       C  0.71244326  0.65629762  0.96600762    -0.24000
C1428       C  0.73869330  0.63507853  0.97948030     0.18200
C1429       C  0.76775989  0.65076603  0.99532524     0.15400
C1430       C  0.77027723  0.68729012  0.99719972    -0.19100
C1431       C  0.79338348  0.62962384  0.00996418    -0.20900
C1432       C  0.78996229  0.59349146  0.00959870    -0.13500
C1433       C  0.76124743  0.57735994  0.99397131     0.03200
C1434       C  0.73589202  0.59851407  0.97830068    -0.25600
H1435       H  0.69343262  0.70807031  0.95920615     0.08300
H1436       H  0.68990960  0.64494493  0.95387327     0.11900
H1437       H  0.79233822  0.69916214  0.00972567     0.11800
H1438       H  0.81577556  0.64102728  0.02230952     0.11600
H1439       H  0.81003804  0.57805961  0.02165641     0.12100
H1440       H  0.71349359  0.58665483  0.96638236     0.14100
loop_ 
_geom_bond_atom_site_label_1 
_geom_bond_atom_site_label_2 
_geom_bond_distance 
_geom_bond_site_symmetry_2 
_ccdc_geom_bond_type 
O1           Mg3   2.173       .  S
O1           Mg9   2.113       .  S
O1           C36   1.241       .  S
C2           O15   1.238       .  S
C2           O39   1.273       .  A
C2           H41   1.082       .  S
Mg3          O32   2.128       .  S
Mg3          O47   2.359       .  S
Mg3          O43   2.288       .  S
Mg3          O14   2.307       .  S
O4          Mg46   2.117       .  S
O4          Mg29   2.157       .  S
O4           C25   1.241       .  S
O5           C36   1.276       .  A
O5          Mg29   2.320       .  S
C6            O8   1.273       .  A
C6           O20   1.270       .  A
C6          C503   1.470       .  S
O7           C35   1.272       .  A
O7           Mg9   2.309       .  S
O8          Mg40   2.221       .  S
Mg9          O15   2.114       .  S
Mg9          O23   2.231       .  S
Mg9          O11   2.333       .  S
C10          O48   1.266       .  A
C10          O16   1.278       .  A
C10         C495   1.468       .  S
O11          C18   1.280       .  A
H12          C25   1.082       .  S
C13          O27   1.237       .  S
C13          O28   1.270       .  A
C13          H38   1.082       .  S
O14          C37   1.275       .  A
O15         Mg29   2.132       .  S
O16         Mg46   2.303       .  S
C17          O30   1.270       .  A
C17          O22   1.279       .  A
C17         C489   1.475       .  S
C18          O45   1.274       .  A
C18         C507   1.486       .  S
Mg19         O26   2.143       .  S
Mg19         O27   2.133       .  S
Mg19         O20   2.339       .  S
Mg19         O21   2.313       .  S
Mg19         O48   2.254       .  S
O21          C25   1.276       .  A
O22         Mg29   2.372       .  S
O23          C42   1.272       .  A
O24          C44   1.276       .  A
O24         Mg40   2.306       .  S
O26         Mg40   2.110       .  S
O26          C37   1.241       .  S
O27         Mg46   2.091       .  S
O28         Mg40   2.295       .  S
Mg29         O45   2.299       .  S
O30         Mg46   2.224       .  S
H31          C36   1.082       .  S
O32         Mg40   2.108       .  S
O32          C35   1.238       .  S
H33          C35   1.082       .  S
H34          C37   1.082       .  S
O39         Mg46   2.311       .  S
C42          O47   1.275       .  A
C42         C513   1.474       .  S
O43          C44   1.274       .  A
C44         C519   1.475       .  S
O49         Mg51   2.150       .  S
O49         Mg57   2.103       .  S
O49          C84   1.241       .  S
C50          O63   1.238       .  S
C50          O87   1.272       .  A
C50          H89   1.082       .  S
Mg51         O80   2.130       .  S
Mg51         O95   2.338       .  S
Mg51         O91   2.260       .  S
Mg51         O62   2.311       .  S
O52         Mg94   2.112       .  S
O52         Mg77   2.152       .  S
O52          C73   1.241       .  S
O53          C84   1.275       .  A
O53         Mg77   2.308       .  S
C54          O56   1.269       .  A
C54          O68   1.272       .  A
C54         C501   1.468       .  S
O55          C83   1.273       .  A
O55         Mg57   2.304       .  S
O56         Mg88   2.205       .  S
Mg57         O63   2.102       .  S
Mg57         O71   2.216       .  S
Mg57         O59   2.320       .  S
C58          O96   1.270       .  A
C58          O64   1.277       .  A
C58         C453   1.475       .  S
O59          C66   1.277       .  A
H60          C73   1.082       .  S
C61          O75   1.239       .  S
C61          O76   1.274       .  A
C61          H86   1.083       .  S
O62          C85   1.274       .  A
O63         Mg77   2.123       .  S
O64         Mg94   2.297       .  S
C65          O78   1.270       .  A
C65          O70   1.276       .  A
C65         C471   1.473   1_655  S
C66          O93   1.274       .  A
C66         C153   1.475       .  S
Mg67         O74   2.158       .  S
Mg67         O75   2.137       .  S
Mg67         O68   2.359       .  S
Mg67         O69   2.311       .  S
Mg67         O96   2.286       .  S
O69          C73   1.275       .  A
O70         Mg77   2.356       .  S
O71          C90   1.271       .  A
O72          C92   1.280       .  A
O72         Mg88   2.340       .  S
O74         Mg88   2.101       .  S
O74          C85   1.239       .  S
O75         Mg94   2.108       .  S
O76         Mg88   2.319       .  S
Mg77         O93   2.275       .  S
O78         Mg94   2.234       .  S
H79          C84   1.082       .  S
O80         Mg88   2.098       .  S
O80          C83   1.240       .  S
H81          C83   1.082       .  S
H82          C85   1.082       .  S
O87         Mg94   2.308       .  S
C90          O95   1.269       .  A
C90         C527   1.468       .  S
O91          C92   1.269       .  A
C92         C521   1.480       .  S
O97         Mg99   2.160       .  S
O97        Mg105   2.109       .  S
O97         C132   1.241       .  S
C98         O111   1.238       .  S
C98         O135   1.272       .  A
C98         H137   1.082       .  S
Mg99        O128   2.132       .  S
Mg99        O143   2.348       .  S
Mg99        O139   2.273       .  S
Mg99        O110   2.306       .  S
O100       Mg142   2.111       .  S
O100       Mg125   2.153       .  S
O100        C121   1.242       .  S
O101        C132   1.276       .  A
O101       Mg125   2.318       .  S
C102        O104   1.268       .  A
C102        O116   1.273       .  A
C102        C483   1.473       .  S
O103        C131   1.272       .  A
O103       Mg105   2.307       .  S
O104       Mg136   2.220       .  S
Mg105       O111   2.108       .  S
Mg105       O119   2.218       .  S
Mg105       O107   2.335       .  S
C106        O144   1.271       .  A
C106        O112   1.274       .  A
C106        C297   1.472       .  S
O107        C114   1.280       .  A
H108        C121   1.082       .  S
C109        O123   1.239       .  S
C109        O124   1.273       .  A
C109        H134   1.083       .  S
O110        C133   1.274       .  A
O111       Mg125   2.126       .  S
O112       Mg142   2.294       .  S
C113        O126   1.267       .  A
C113        O118   1.276       .  A
C113        C305   1.473       .  S
C114        O141   1.272       .  A
C114        C155   1.481       .  S
Mg115       O122   2.157       .  S
Mg115       O123   2.126       .  S
Mg115       O116   2.366       .  S
Mg115       O117   2.314       .  S
Mg115       O144   2.278       .  S
O117        C121   1.276       .  A
O118       Mg125   2.368       .  S
O119        C138   1.273       .  A
O120        C140   1.277       .  A
O120       Mg136   2.311       .  S
O122       Mg136   2.100       .  S
O122        C133   1.240       .  S
O123       Mg142   2.095       .  S
O124       Mg136   2.310       .  S
Mg125       O141   2.277       .  S
O126       Mg142   2.220       .  S
H127        C132   1.082       .  S
O128       Mg136   2.106       .  S
O128        C131   1.238       .  S
H129        C131   1.081       .  S
H130        C133   1.082       .  S
O135       Mg142   2.311       .  S
C138        O143   1.273       .  A
C138        C525   1.469       .  S
O139        C140   1.272       .  A
C140        C149   1.473       .  S
C145       C1433   1.498       .  S
C145        N146   1.369       .  A
C145        N150   1.367   1_556  A
N146        C147   1.367       .  A
C147        C200   1.475       .  S
C147        N148   1.353       .  A
N148        C149   1.351   1_556  A
C149        N150   1.361       .  A
C151       C1409   1.493       .  S
C151        N152   1.363       .  A
C151        N156   1.368       .  A
N152        C153   1.359   1_455  A
C153        N154   1.355       .  A
N154        C155   1.357       .  A
C155        N156   1.368   1_655  A
O157       Mg159   2.170       .  S
O157       Mg165   2.102       .  S
O157        C192   1.239       .  S
C158        O171   1.239       .  S
C158        O195   1.273       .  A
C158        H197   1.082       .  S
Mg159       O188   2.127       .  S
Mg159       O203   2.365       .  S
Mg159       O199   2.275       .  S
Mg159       O170   2.314       .  S
O160       Mg202   2.120       .  S
O160       Mg185   2.157       .  S
O160        C181   1.243       .  S
O161        C192   1.274       .  A
O161       Mg185   2.313       .  S
C162        O164   1.274       .  A
C162        O176   1.274       .  A
C162        C485   1.478       .  S
O163        C191   1.275       .  A
O163       Mg165   2.323       .  S
O164       Mg196   2.235       .  S
Mg165       O171   2.101       .  S
Mg165       O179   2.218       .  S
Mg165       O167   2.338       .  S
C166        O204   1.269       .  A
C166        O172   1.277       .  A
C166        C255   1.469       .  S
O167        C174   1.280       .  A
H168        C181   1.082       .  S
C169        O183   1.236       .  S
C169        O184   1.270       .  A
C169        H194   1.082       .  S
O170        C193   1.276       .  A
O171       Mg185   2.134       .  S
O172       Mg202   2.296       .  S
C173        O186   1.272       .  A
C173        O178   1.274       .  A
C173        C263   1.472       .  S
C174        O201   1.273       .  A
C174        C509   1.483       .  S
Mg175       O182   2.150       .  S
Mg175       O183   2.131       .  S
Mg175       O176   2.368       .  S
Mg175       O177   2.313       .  S
Mg175       O204   2.269       .  S
O177        C181   1.277       .  A
O178       Mg185   2.342       .  S
O179        C198   1.267       .  A
O180        C200   1.278       .  A
O180       Mg196   2.313       .  S
O182       Mg196   2.107       .  S
O182        C193   1.241       .  S
O183       Mg202   2.096       .  S
O184       Mg196   2.298       .  S
Mg185       O201   2.283       .  S
O186       Mg202   2.238       .  S
H187        C192   1.083       .  S
O188       Mg196   2.116       .  S
O188        C191   1.239       .  S
H189        C191   1.082       .  S
H190        C193   1.082       .  S
O195       Mg202   2.305       .  S
C198        O203   1.273       .  A
C198        C515   1.472       .  S
O199        C200   1.271       .  A
O205       Mg207   2.133       .  S
O205       Mg213   2.107       .  S
O205        C240   1.239       .  S
C206        O219   1.240       .  S
C206        O243   1.273       .  A
C206        H245   1.081       .  S
Mg207       O236   2.136       .  S
Mg207       O251   2.341       .  S
Mg207       O247   2.258       .  S
Mg207       O218   2.314       .  S
O208       Mg250   2.115       .  S
O208       Mg233   2.139       .  S
O208        C229   1.239       .  S
O209        C240   1.273       .  A
O209       Mg233   2.306       .  S
C210        O212   1.273       .  A
C210        O224   1.273       .  A
C210        C257   1.464       .  S
O211        C239   1.274       .  A
O211       Mg213   2.309       .  S
O212       Mg244   2.242       .  S
Mg213       O219   2.102       .  S
Mg213       O227   2.210       .  S
Mg213       O215   2.339       .  S
C214        O252   1.272       .  A
C214        O220   1.279       .  A
C214        C281   1.478       .  S
O215        C222   1.280       .  A
H216        C229   1.081       .  S
C217        O231   1.239       .  S
C217        O232   1.273       .  A
C217        H242   1.082       .  S
O218        C241   1.275       .  A
O219       Mg233   2.129       .  S
O220       Mg250   2.334       .  S
C221        O234   1.271       .  A
C221        O226   1.276       .  A
C221        C287   1.464       .  S
C222        O249   1.273       .  A
C222        C477   1.483       .  S
Mg223       O230   2.143       .  S
Mg223       O231   2.123       .  S
Mg223       O224   2.322       .  S
Mg223       O225   2.301       .  S
Mg223       O252   2.268       .  S
O225        C229   1.272       .  A
O226       Mg233   2.348       .  S
O227        C246   1.272       .  A
O228        C248   1.278       .  A
O228       Mg244   2.313       .  S
O230       Mg244   2.124       .  S
O230        C241   1.240       .  S
O231       Mg250   2.109       .  S
O232       Mg244   2.305       .  S
Mg233       O249   2.278       .  S
O234       Mg250   2.209       .  S
H235        C240   1.082       .  S
O236       Mg244   2.115       .  S
O236        C239   1.240       .  S
H237        C239   1.082       .  S
H238        C241   1.082       .  S
O243       Mg250   2.298       .  S
C246        O251   1.272       .  A
C246        C267   1.466       .  S
O247        C248   1.267       .  A
C248        C261   1.471       .  S
C253       C1401   1.495       .  S
C253        N254   1.371       .  A
C253        N258   1.369       .  A
N254        C255   1.366   1_554  A
C255        N256   1.345       .  A
N256        C257   1.344       .  A
C257        N258   1.362   1_556  A
C259       C1385   1.497       .  S
C259        N260   1.370       .  A
C259        N264   1.372       .  A
N260        C261   1.365       .  A
C261        N262   1.346       .  A
N262        C263   1.348       .  A
C263        N264   1.365       .  A
C265       C1369   1.493       .  S
C265        N266   1.376       .  A
C265        N270   1.374   1_545  A
N266        C267   1.366       .  A
C267        N268   1.337   1_545  A
N268        C269   1.335       .  A
C269        C396   1.459       .  S
C269        N270   1.361       .  A
C271       C1345   1.506       .  S
C271        N272   1.375   1_545  A
C271        N276   1.381       .  A
N272        C273   1.362   1_655  A
C273        C444   1.461       .  S
C273        N274   1.335       .  A
N274        C275   1.338   1_565  A
C275        C348   1.473       .  S
C275        N276   1.372   1_455  A
C277       C1337   1.501       .  S
C277        N278   1.367       .  A
C277        N282   1.364   1_554  A
N278        C279   1.368       .  A
C279        C316   1.483       .  S
C279        N280   1.359       .  A
N280        C281   1.358   1_554  A
C281        N282   1.363       .  A
C283       C1321   1.498       .  S
C283        N284   1.377       .  A
C283        N288   1.375   1_554  A
N284        C285   1.366   1_565  A
C285        C323   1.471       .  S
C285        N286   1.341   1_554  A
N286        C287   1.338       .  A
C287        N288   1.362   1_545  A
C289       C1297   1.504       .  S
C289        N290   1.368       .  A
C289        N294   1.364   1_565  A
N290        C291   1.370       .  A
C291        C420   1.482       .  S
C291        N292   1.360       .  A
N292        C293   1.357   1_565  A
C293        C324   1.479       .  S
C293        N294   1.361       .  A
C295       C1281   1.498       .  S
C295        N296   1.367   1_455  A
C295        N300   1.378       .  A
N296        C297   1.358   1_556  A
C297        N298   1.347   1_655  A
N298        C299   1.351       .  A
C299        C312   1.484       .  S
C299        N300   1.373   1_554  A
C301       C1265   1.491       .  S
C301        N302   1.366   1_655  A
C301        N306   1.372       .  A
N302        C303   1.358       .  A
C303        C350   1.470       .  S
C303        N304   1.346       .  A
N304        C305   1.353   1_455  A
C305        N306   1.367       .  A
O307       Mg309   2.133       .  S
O307       Mg315   2.110       .  S
O307        C342   1.240       .  S
C308        O321   1.240       .  S
C308        O345   1.275       .  A
C308        H347   1.081       .  S
Mg309       O338   2.135       .  S
Mg309       O353   2.360       .  S
Mg309       O349   2.256       .  S
Mg309       O320   2.310       .  S
O310       Mg352   2.113       .  S
O310       Mg335   2.150       .  S
O310        C331   1.240       .  S
O311        C342   1.274       .  A
O311       Mg335   2.311       .  S
C312        O314   1.273       .  A
C312        O326   1.279       .  A
O313        C341   1.274       .  A
O313       Mg315   2.300       .  S
O314       Mg346   2.243       .  S
Mg315       O321   2.129       .  S
Mg315       O329   2.234       .  S
Mg315       O317   2.343       .  S
C316        O354   1.273       .  A
C316        O322   1.281       .  A
O317        C324   1.279       .  A
H318        C331   1.082       .  S
C319        O333   1.240       .  S
C319        O334   1.273       .  A
C319        H344   1.081       .  S
O320        C343   1.274       .  A
O321       Mg335   2.124       .  S
O322       Mg352   2.349       .  S
C323        O336   1.272       .  A
C323        O328   1.276       .  A
C324        O351   1.273       .  A
Mg325       O332   2.143       .  S
Mg325       O333   2.125       .  S
Mg325       O326   2.380       .  S
Mg325       O327   2.320       .  S
Mg325       O354   2.274       .  S
O327        C331   1.275       .  A
O328       Mg335   2.365       .  S
O329        C348   1.275       .  A
O330        C350   1.278       .  A
O330       Mg346   2.314       .  S
O332       Mg346   2.119       .  S
O332        C343   1.240       .  S
O333       Mg352   2.112       .  S
O334       Mg346   2.301       .  S
Mg335       O351   2.265       .  S
O336       Mg352   2.211       .  S
H337        C342   1.082       .  S
O338       Mg346   2.122       .  S
O338        C341   1.240       .  S
H339        C341   1.081       .  S
H340        C343   1.082       .  S
O345       Mg352   2.310       .  S
C348        O353   1.275       .  A
O349        C350   1.269       .  A
O355       Mg357   2.134       .  S
O355       Mg363   2.108       .  S
O355        C390   1.239       .  S
C356        O369   1.241       .  S
C356        O393   1.273       .  A
C356        H395   1.081       .  S
Mg357       O386   2.136       .  S
Mg357       O401   2.341       .  S
Mg357       O397   2.267       .  S
Mg357       O368   2.309       .  S
O358       Mg400   2.113       .  S
O358       Mg383   2.138       .  S
O358        C379   1.240       .  S
O359        C390   1.273       .  A
O359       Mg383   2.304       .  S
C360        O362   1.272       .  A
C360        O374   1.276       .  A
C360        C497   1.469       .  S
O361        C389   1.274       .  A
O361       Mg363   2.308       .  S
O362       Mg394   2.231       .  S
Mg363       O369   2.091       .  S
Mg363       O377   2.190       .  S
Mg363       O365   2.344       .  S
C364        O402   1.273       .  A
C364        O370   1.278       .  A
C364        C465   1.476       .  S
O365        C372   1.279       .  A
H366        C379   1.081       .  S
C367        O381   1.239       .  S
C367        O382   1.273       .  A
C367        H392   1.082       .  S
O368        C391   1.274       .  A
O369       Mg383   2.119       .  S
O370       Mg400   2.328       .  S
C371        O384   1.272       .  A
C371        O376   1.271       .  A
C371        C459   1.460       .  S
C372        O399   1.271       .  A
C372        C479   1.481       .  S
Mg373       O380   2.134       .  S
Mg373       O381   2.121       .  S
Mg373       O374   2.350       .  S
Mg373       O375   2.306       .  S
Mg373       O402   2.267       .  S
O375        C379   1.274       .  A
O376       Mg383   2.327       .  S
O377        C396   1.269       .  A
O378        C398   1.278       .  A
O378       Mg394   2.311       .  S
O380       Mg394   2.114       .  S
O380        C391   1.240       .  S
O381       Mg400   2.109       .  S
O382       Mg394   2.305       .  S
Mg383       O399   2.263       .  S
O384       Mg400   2.213       .  S
H385        C390   1.082       .  S
O386       Mg394   2.111       .  S
O386        C389   1.240       .  S
H387        C389   1.081       .  S
H388        C391   1.082       .  S
O393       Mg400   2.296       .  S
C396        O401   1.273       .  A
O397        C398   1.269       .  A
C398        C491   1.474       .  S
O403       Mg405   2.124       .  S
O403       Mg411   2.109       .  S
O403        C438   1.239       .  S
C404        O417   1.241       .  S
C404        O441   1.274       .  A
C404        H443   1.081       .  S
Mg405       O434   2.140       .  S
Mg405       O449   2.338       .  S
Mg405       O445   2.266       .  S
Mg405       O416   2.308       .  S
O406       Mg448   2.111       .  S
O406       Mg431   2.147       .  S
O406        C427   1.239       .  S
O407        C438   1.273       .  A
O407       Mg431   2.302       .  S
C408        O410   1.271       .  A
C408        O422   1.274       .  A
C408        C455   1.471       .  S
O409        C437   1.275       .  A
O409       Mg411   2.307       .  S
O410       Mg442   2.236       .  S
Mg411       O417   2.112       .  S
Mg411       O425   2.219       .  S
Mg411       O413   2.342       .  S
C412        O450   1.270       .  A
C412        O418   1.282       .  A
C412        C467   1.480       .  S
O413        C420   1.280       .  A
H414        C427   1.081       .  S
C415        O429   1.240       .  S
C415        O430   1.275       .  A
C415        H440   1.082       .  S
O416        C439   1.273       .  A
O417       Mg431   2.125       .  S
O418       Mg448   2.357       .  S
C419        O432   1.274       .  A
C419        O424   1.272       .  A
C419        C461   1.463       .  S
C420        O447   1.271       .  A
Mg421       O428   2.135       .  S
Mg421       O429   2.127       .  S
Mg421       O422   2.346       .  S
Mg421       O423   2.312       .  S
Mg421       O450   2.258       .  S
O423        C427   1.273       .  A
O424       Mg431   2.336       .  S
O425        C444   1.272       .  A
O426        C446   1.278       .  A
O426       Mg442   2.310       .  S
O428       Mg442   2.112       .  S
O428        C439   1.239       .  S
O429       Mg448   2.115       .  S
O430       Mg442   2.311       .  S
Mg431       O447   2.268       .  S
O432       Mg448   2.215       .  S
H433        C438   1.082       .  S
O434       Mg442   2.114       .  S
O434        C437   1.242       .  S
H435        C437   1.081       .  S
H436        C439   1.082       .  S
O441       Mg448   2.305       .  S
C444        O449   1.273       .  A
O445        C446   1.269       .  A
C446        C473   1.473       .  S
C451       C1249   1.505       .  S
C451        N452   1.374   1_455  A
C451        N456   1.373       .  A
N452        C453   1.367       .  A
C453        N454   1.346   1_655  A
N454        C455   1.345       .  A
C455        N456   1.363       .  A
C457       C1233   1.496       .  S
C457        N458   1.375       .  A
C457        N462   1.376       .  A
N458        C459   1.363   1_545  A
C459        N460   1.334       .  A
N460        C461   1.336       .  A
C461        N462   1.366   1_565  A
C463       C1225   1.496       .  S
C463        N464   1.363       .  A
C463        N468   1.366       .  A
N464        C465   1.362       .  A
C465        N466   1.357       .  A
N466        C467   1.357       .  A
C467        N468   1.369       .  A
C469       C1209   1.494       .  S
C469        N470   1.371   1_455  A
C469        N474   1.370       .  A
N470        C471   1.364   1_655  A
C471        N472   1.349       .  A
N472        C473   1.346       .  A
C473        N474   1.365       .  A
C475       C1185   1.502       .  S
C475        N476   1.368       .  A
C475        N480   1.365   1_545  A
N476        C477   1.369       .  A
C477        N478   1.359   1_545  A
N478        C479   1.356       .  A
C479        N480   1.363       .  A
C481       C1177   1.498       .  S
C481        N482   1.377       .  A
C481        N486   1.379   1_554  A
N482        C483   1.362       .  A
C483        N484   1.338       .  A
N484        C485   1.340   1_554  A
C485        N486   1.369       .  A
C487       C1153   1.494       .  S
C487        N488   1.372       .  A
C487        N492   1.370       .  A
N488        C489   1.364       .  A
C489        N490   1.350       .  A
N490        C491   1.347       .  A
C491        N492   1.364       .  A
C493       C1145   1.506       .  S
C493        N494   1.372       .  A
C493        N498   1.374       .  A
N494        C495   1.367       .  A
C495        N496   1.343       .  A
N496        C497   1.344       .  A
C497        N498   1.364       .  A
C499       C1129   1.495       .  S
C499        N500   1.377       .  A
C499        N504   1.378       .  A
N500        C501   1.362       .  A
C501        N502   1.336       .  A
N502        C503   1.336       .  A
C503        N504   1.367       .  A
C505       C1113   1.506       .  S
C505        N506   1.372       .  A
C505        N510   1.369       .  A
N506        C507   1.370       .  A
C507        N508   1.357       .  A
N508        C509   1.354       .  A
C509        N510   1.363       .  A
C511       C1089   1.488       .  S
C511        N512   1.374       .  A
C511        N516   1.375       .  A
N512        C513   1.363       .  A
C513        N514   1.341       .  A
N514        C515   1.342       .  A
C515        N516   1.364       .  A
C517       C1081   1.494       .  S
C517        N518   1.365       .  A
C517        N522   1.369       .  A
N518        C519   1.361       .  A
C519        N520   1.354       .  A
N520        C521   1.355       .  A
C521        N522   1.370       .  A
C523       C1057   1.498       .  S
C523        N524   1.377       .  A
C523        N528   1.378       .  A
N524        C525   1.363       .  A
C525        N526   1.335       .  A
N526        C527   1.336       .  A
C527        N528   1.367       .  A
O529       Mg531   2.112       .  S
O529       Mg537   2.137       .  S
O529        C564   1.239       .  S
C530        O543   1.241       .  S
C530        O567   1.275       .  A
C530        H569   1.082       .  S
Mg531       O560   2.101       .  S
Mg531       O575   2.336       .  S
Mg531       O571   2.232       .  S
Mg531       O542   2.315       .  S
O532       Mg574   2.122       .  S
O532       Mg557   2.097       .  S
O532        C553   1.237       .  S
O533        C564   1.273       .  A
O533       Mg557   2.305       .  S
C534        O536   1.273       .  A
C534        O548   1.276       .  A
C534        C957   1.479       .  S
O535        C563   1.275       .  A
O535       Mg537   2.317       .  S
O536       Mg568   2.286       .  S
Mg537       O543   2.147       .  S
Mg537       O551   2.257       .  S
Mg537       O539   2.363       .  S
C538        O576   1.272       .  A
C538        O544   1.275       .  A
C538        C963   1.473       .  S
O539        C546   1.275       .  A
H540        C553   1.081       .  S
C541        O555   1.242       .  S
C541        O556   1.276       .  A
C541        H566   1.083       .  S
O542        C565   1.274       .  A
O543       Mg557   2.110       .  S
O544       Mg574   2.359       .  S
C545        O558   1.272       .  A
C545        O550   1.277       .  A
C545        C741   1.474       .  S
C546        O573   1.270       .  A
C546       C1035   1.472       .  S
Mg547       O554   2.106       .  S
Mg547       O555   2.118       .  S
Mg547       O548   2.312       .  S
Mg547       O549   2.296       .  S
Mg547       O576   2.217       .  S
O549        C553   1.270       .  A
O550       Mg557   2.319       .  S
O551        C570   1.270       .  A
O552        C572   1.274       .  A
O552       Mg568   2.379       .  S
O554       Mg568   2.117       .  S
O554        C565   1.239       .  S
O555       Mg574   2.150       .  S
O556       Mg568   2.314       .  S
Mg557       O573   2.201       .  S
O558       Mg574   2.265       .  S
H559        C564   1.082       .  S
O560       Mg568   2.173       .  S
O560        C563   1.240       .  S
H561        C563   1.082       .  S
H562        C565   1.082       .  S
O567       Mg574   2.309       .  S
C570        O575   1.280       .  A
C570        C975   1.473       .  S
O571        C572   1.271       .  A
C572        C983   1.480       .  S
O577       Mg579   2.111       .  S
O577       Mg585   2.134       .  S
O577        C612   1.239       .  S
C578        O591   1.240       .  S
C578        O615   1.273       .  A
C578        H617   1.082       .  S
Mg579       O608   2.116       .  S
Mg579       O623   2.309       .  S
Mg579       O619   2.240       .  S
Mg579       O590   2.302       .  S
O580       Mg622   2.139       .  S
O580       Mg605   2.110       .  S
O580        C601   1.241       .  S
O581        C612   1.273       .  A
O581       Mg605   2.302       .  S
C582        O584   1.271       .  A
C582        O596   1.280       .  A
C582        C993   1.481       .  S
O583        C611   1.275       .  A
O583       Mg585   2.310       .  S
O584       Mg616   2.268       .  S
Mg585       O591   2.130       .  S
Mg585       O599   2.275       .  S
Mg585       O587   2.350       .  S
C586        O624   1.270       .  A
C586        O592   1.274       .  A
C586       C1025   1.460       .  S
O587        C594   1.276       .  A
H588        C601   1.081       .  S
C589        O603   1.239       .  S
C589        O604   1.273       .  A
C589        H614   1.082       .  S
O590        C613   1.273       .  A
O591       Mg605   2.113       .  S
O592       Mg622   2.344       .  S
C593        O606   1.270       .  A
C593        O598   1.278       .  A
C593       C1029   1.473       .  S
C594        O621   1.273       .  A
C594        C627   1.472       .  S
Mg595       O602   2.099       .  S
Mg595       O603   2.109       .  S
Mg595       O596   2.341       .  S
Mg595       O597   2.307       .  S
Mg595       O624   2.201       .  S
O597        C601   1.274       .  A
O598       Mg605   2.305       .  S
O599        C618   1.271       .  A
O600        C620   1.274       .  A
O600       Mg616   2.341       .  S
O602       Mg616   2.123       .  S
O602        C613   1.240       .  S
O603       Mg622   2.139       .  S
O604       Mg616   2.309       .  S
Mg605       O621   2.241       .  S
O606       Mg622   2.276       .  S
H607        C612   1.082       .  S
O608       Mg616   2.136       .  S
O608        C611   1.241       .  S
H609        C611   1.081       .  S
H610        C613   1.081       .  S
O615       Mg622   2.305       .  S
C618        O623   1.278       .  A
C618       C1005   1.475       .  S
O619        C620   1.273       .  A
C620        C971   1.469       .  S
C625       C1377   1.501       .  S
C625        N626   1.374       .  A
C625        N630   1.373       .  A
N626        C627   1.365       .  A
C627        N628   1.344       .  A
N628        C629   1.345       .  A
C629        C672   1.473       .  S
C629        N630   1.366       .  A
O631       Mg633   2.099       .  S
O631       Mg639   2.135       .  S
O631        C666   1.239       .  S
C632        O645   1.241       .  S
C632        O669   1.275       .  A
C632        H671   1.082       .  S
Mg633       O662   2.110       .  S
Mg633       O677   2.292       .  S
Mg633       O673   2.233       .  S
Mg633       O644   2.311       .  S
O634       Mg676   2.125       .  S
O634       Mg659   2.104       .  S
O634        C655   1.238       .  S
O635        C666   1.273       .  A
O635       Mg659   2.311       .  S
C636        O638   1.271       .  A
C636        O650   1.279       .  A
C636        C681   1.480       .  S
O637        C665   1.275       .  A
O637       Mg639   2.312       .  S
O638       Mg670   2.270       .  S
Mg639       O645   2.153       .  S
Mg639       O653   2.283       .  S
Mg639       O641   2.363       .  S
C640        O678   1.270       .  A
C640        O646   1.275       .  A
C640       C1011   1.470       .  S
O641        C648   1.274       .  A
H642        C655   1.082       .  S
C643        O657   1.239       .  S
C643        O658   1.274       .  A
C643        H668   1.083       .  S
O644        C667   1.273       .  A
O645       Mg659   2.102       .  S
O646       Mg676   2.363       .  S
C647        O660   1.273       .  A
C647        O652   1.278       .  A
C647        C743   1.481       .  S
C648        O675   1.270       .  A
C648       C1037   1.471       .  S
Mg649       O656   2.105       .  S
Mg649       O657   2.107       .  S
Mg649       O650   2.335       .  S
Mg649       O651   2.312       .  S
Mg649       O678   2.209       .  S
O651        C655   1.273       .  A
O652       Mg659   2.325       .  S
O653        C672   1.271       .  A
O654        C674   1.273       .  A
O654       Mg670   2.338       .  S
O656       Mg670   2.130       .  S
O656        C667   1.239       .  S
O657       Mg676   2.158       .  S
O658       Mg670   2.308       .  S
Mg659       O675   2.213       .  S
O660       Mg676   2.284       .  S
H661        C666   1.082       .  S
O662       Mg670   2.150       .  S
O662        C665   1.241       .  S
H663        C665   1.082       .  S
H664        C667   1.082       .  S
O669       Mg676   2.312       .  S
C672        O677   1.276       .  A
O673        C674   1.269       .  A
C674       C1031   1.469       .  S
C679       C1065   1.501       .  S
C679        N680   1.367       .  A
C679        N684   1.368       .  A
N680        C681   1.364       .  A
C681        N682   1.355       .  A
N682        C683   1.358       .  A
C683        C696   1.482       .  S
C683        N684   1.367       .  A
C685       C1161   1.499       .  S
C685        N686   1.374       .  A
C685        N690   1.371       .  A
N686        C687   1.367   1_556  A
C687        C732   1.471       .  S
C687        N688   1.343       .  A
N688        C689   1.342       .  A
C689        C762   1.463       .  S
C689        N690   1.361   1_554  A
O691       Mg693   2.115       .  S
O691       Mg699   2.136       .  S
O691        C726   1.238       .  S
C692        O705   1.241       .  S
C692        O729   1.276       .  A
C692        H731   1.082       .  S
Mg693       O722   2.118       .  S
Mg693       O737   2.305       .  S
Mg693       O733   2.251       .  S
Mg693       O704   2.308       .  S
O694       Mg736   2.128       .  S
O694       Mg719   2.104       .  S
O694        C715   1.237       .  S
O695        C726   1.272       .  A
O695       Mg719   2.311       .  S
C696        O698   1.274       .  A
C696        O710   1.278       .  A
O697        C725   1.278       .  A
O697       Mg699   2.326       .  S
O698       Mg730   2.296       .  S
Mg699       O705   2.147       .  S
Mg699       O713   2.273       .  S
Mg699       O701   2.387       .  S
C700        O738   1.270       .  A
C700        O706   1.273       .  A
C700       C1013   1.469       .  S
O701        C708   1.277       .  A
H702        C715   1.082       .  S
C703        O717   1.240       .  S
C703        O718   1.275       .  A
C703        H728   1.082       .  S
O704        C727   1.272       .  A
O705       Mg719   2.103       .  S
O706       Mg736   2.347       .  S
C707        O720   1.270       .  A
C707        O712   1.278       .  A
C707       C1017   1.475       .  S
C708        O735   1.271       .  A
C708       C1001   1.481       .  S
Mg709       O716   2.105       .  S
Mg709       O717   2.116       .  S
Mg709       O710   2.322       .  S
Mg709       O711   2.305       .  S
Mg709       O738   2.218       .  S
O711        C715   1.272       .  A
O712       Mg719   2.320       .  S
O713        C732   1.269       .  A
O714        C734   1.276       .  A
O714       Mg730   2.362       .  S
O716       Mg730   2.129       .  S
O716        C727   1.237       .  S
O717       Mg736   2.160       .  S
O718       Mg730   2.312       .  S
Mg719       O735   2.224       .  S
O720       Mg736   2.269       .  S
H721        C726   1.082       .  S
O722       Mg730   2.174       .  S
O722        C725   1.242       .  S
H723        C725   1.082       .  S
H724        C727   1.082       .  S
O729       Mg736   2.311       .  S
C732        O737   1.279       .  A
O733        C734   1.272       .  A
C734        C989   1.480       .  S
C739       C1217   1.497       .  S
C739        N740   1.363       .  A
C739        N744   1.369       .  A
N740        C741   1.360       .  A
C741        N742   1.355       .  A
N742        C743   1.358       .  A
C743        N744   1.368       .  A
O745       Mg747   2.121       .  S
O745       Mg753   2.137       .  S
O745        C780   1.241       .  S
C746        O759   1.239       .  S
C746        O783   1.273       .  A
C746        H785   1.082       .  S
Mg747       O776   2.118       .  S
Mg747       O791   2.303       .  S
Mg747       O787   2.232       .  S
Mg747       O758   2.303       .  S
O748       Mg790   2.137       .  S
O748       Mg773   2.098       .  S
O748        C769   1.240       .  S
O749        C780   1.276       .  A
O749       Mg773   2.315       .  S
C750        O752   1.271       .  A
C750        O764   1.279       .  A
C750        C995   1.475       .  S
O751        C779   1.273       .  A
O751       Mg753   2.309       .  S
O752       Mg784   2.259       .  S
Mg753       O759   2.133       .  S
Mg753       O767   2.262       .  S
Mg753       O755   2.326       .  S
C754        O792   1.272       .  A
C754        O760   1.273       .  A
C754       C1023   1.466       .  S
O755        C762   1.272       .  A
H756        C769   1.081       .  S
C757        O771   1.240       .  S
C757        O772   1.274       .  A
C757        H782   1.082       .  S
O758        C781   1.272       .  A
O759       Mg773   2.110       .  S
O760       Mg790   2.344       .  S
C761        O774   1.270       .  A
C761        O766   1.278       .  A
C761        C987   1.474       .  S
C762        O789   1.270       .  A
Mg763       O770   2.113       .  S
Mg763       O771   2.114       .  S
Mg763       O764   2.333       .  S
Mg763       O765   2.295       .  S
Mg763       O792   2.211       .  S
O765        C769   1.273       .  A
O766       Mg773   2.316       .  S
O767        C786   1.268       .  A
O768        C788   1.276       .  A
O768       Mg784   2.344       .  S
O770       Mg784   2.117       .  S
O770        C781   1.238       .  S
O771       Mg790   2.138       .  S
O772       Mg784   2.309       .  S
Mg773       O789   2.225       .  S
O774       Mg790   2.268       .  S
H775        C780   1.082       .  S
O776       Mg784   2.130       .  S
O776        C779   1.239       .  S
H777        C779   1.081       .  S
H778        C781   1.081       .  S
O783       Mg790   2.308       .  S
C786        O791   1.276       .  A
C786        C795   1.470       .  S
O787        C788   1.271       .  A
C788       C1047   1.466       .  S
C793       C1425   1.495       .  S
C793        N794   1.367       .  A
C793        N798   1.374       .  A
N794        C795   1.360   1_556  A
C795        N796   1.346   1_554  A
N796        C797   1.350       .  A
C797        C870   1.478       .  S
C797        N798   1.369       .  A
O799       Mg801   2.102       .  S
O799       Mg807   2.130       .  S
O799        C834   1.236       .  S
C800        O813   1.241       .  S
C800        O837   1.277       .  A
C800        H839   1.082       .  S
Mg801       O830   2.114       .  S
Mg801       O845   2.307       .  S
Mg801       O841   2.227       .  S
Mg801       O812   2.296       .  S
O802       Mg844   2.132       .  S
O802       Mg827   2.106       .  S
O802        C823   1.238       .  S
O803        C834   1.270       .  A
O803       Mg827   2.302       .  S
C804        O806   1.270       .  A
C804        O818   1.281       .  A
C804       C1055   1.477       .  S
O805        C833   1.275       .  A
O805       Mg807   2.308       .  S
O806       Mg838   2.266       .  S
Mg807       O813   2.160       .  S
Mg807       O821   2.277       .  S
Mg807       O809   2.344       .  S
C808        O846   1.271       .  A
C808        O814   1.273       .  A
C808        C849   1.476       .  S
O809        C816   1.274       .  A
H810        C823   1.082       .  S
C811        O825   1.242       .  S
C811        O826   1.277       .  A
C811        H836   1.082       .  S
O812        C835   1.270       .  A
O813       Mg827   2.121       .  S
O814       Mg844   2.368       .  S
C815        O828   1.269       .  A
C815        O820   1.275       .  A
C815        C969   1.468       .  S
C816        O843   1.270       .  A
C816       C1007   1.471       .  S
Mg817       O824   2.097       .  S
Mg817       O825   2.103       .  S
Mg817       O818   2.331       .  S
Mg817       O819   2.316       .  S
Mg817       O846   2.227       .  S
O819        C823   1.273       .  A
O820       Mg827   2.287       .  S
O821        C840   1.272       .  A
O822        C842   1.274       .  A
O822       Mg838   2.353       .  S
O824       Mg838   2.128       .  S
O824        C835   1.237       .  S
O825       Mg844   2.161       .  S
O826       Mg838   2.317       .  S
Mg827       O843   2.237       .  S
O828       Mg844   2.274       .  S
H829        C834   1.082       .  S
O830       Mg838   2.146       .  S
O830        C833   1.241       .  S
H831        C833   1.082       .  S
H832        C835   1.082       .  S
O837       Mg844   2.319       .  S
C840        O845   1.277       .  A
C840        C977   1.473       .  S
O841        C842   1.273       .  A
C842        C981   1.474       .  S
C847       C1361   1.496       .  S
C847        N848   1.379       .  A
C847        N852   1.375       .  A
N848        C849   1.367       .  A
C849        N850   1.339       .  A
N850        C851   1.339   1_545  A
C851        C862   1.469       .  S
C851        N852   1.361   1_565  A
O853       Mg855   2.110       .  S
O853       Mg861   2.120       .  S
O853        C888   1.238       .  S
C854        O867   1.241       .  S
C854        O891   1.276       .  A
C854        H893   1.082       .  S
Mg855       O884   2.107       .  S
Mg855       O899   2.343       .  S
Mg855       O895   2.219       .  S
Mg855       O866   2.307       .  S
O856       Mg898   2.134       .  S
O856       Mg881   2.101       .  S
O856        C877   1.238       .  S
O857        C888   1.272       .  A
O857       Mg881   2.309       .  S
C858        O860   1.270       .  A
C858        O872   1.278       .  A
C858       C1053   1.472       .  S
O859        C887   1.277       .  A
O859       Mg861   2.316       .  S
O860       Mg892   2.261       .  S
Mg861       O867   2.151       .  S
Mg861       O875   2.268       .  S
Mg861       O863   2.366       .  S
C862        O900   1.269       .  A
C862        O868   1.272       .  A
O863        C870   1.276       .  A
H864        C877   1.082       .  S
C865        O879   1.240       .  S
C865        O880   1.275       .  A
C865        H890   1.082       .  S
O866        C889   1.272       .  A
O867       Mg881   2.112       .  S
O868       Mg898   2.352       .  S
C869        O882   1.271       .  A
C869        O874   1.279       .  A
C869       C1049   1.478       .  S
C870        O897   1.272       .  A
Mg871       O878   2.108       .  S
Mg871       O879   2.110       .  S
Mg871       O872   2.319       .  S
Mg871       O873   2.309       .  S
Mg871       O900   2.217       .  S
O873        C877   1.273       .  A
O874       Mg881   2.310       .  S
O875        C894   1.271       .  A
O876        C896   1.274       .  A
O876       Mg892   2.370       .  S
O878       Mg892   2.132       .  S
O878        C889   1.238       .  S
O879       Mg898   2.169       .  S
O880       Mg892   2.316       .  S
Mg881       O897   2.242       .  S
O882       Mg898   2.291       .  S
H883        C888   1.082       .  S
O884       Mg892   2.156       .  S
O884        C887   1.242       .  S
H885        C887   1.082       .  S
H886        C889   1.082       .  S
O891       Mg898   2.311       .  S
C894        O899   1.280       .  A
C894       C1041   1.480       .  S
O895        C896   1.273       .  A
C896        C951   1.478       .  S
O901       Mg903   2.108       .  S
O901       Mg909   2.126       .  S
O901        C936   1.238       .  S
C902        O915   1.241       .  S
C902        O939   1.277       .  A
C902        H941   1.082       .  S
Mg903       O932   2.114       .  S
Mg903       O947   2.305       .  S
Mg903       O943   2.219       .  S
Mg903       O914   2.300       .  S
O904       Mg946   2.128       .  S
O904       Mg929   2.103       .  S
O904        C925   1.238       .  S
O905        C936   1.273       .  A
O905       Mg929   2.316       .  S
C906        O908   1.272       .  A
C906        O920   1.277       .  A
C906        C959   1.475       .  S
O907        C935   1.276       .  A
O907       Mg909   2.315       .  S
O908       Mg940   2.268       .  S
Mg909       O915   2.170       .  S
Mg909       O923   2.290       .  S
Mg909       O911   2.376       .  S
C910        O948   1.271       .  A
C910        O916   1.275       .  A
C910        C965   1.478       .  S
O911        C918   1.276       .  A
H912        C925   1.082       .  S
C913        O927   1.242       .  S
C913        O928   1.275       .  A
C913        H938   1.082       .  S
O914        C937   1.271       .  A
O915       Mg929   2.107       .  S
O916       Mg946   2.376       .  S
C917        O930   1.270       .  A
C917        O922   1.278       .  A
C917       C1019   1.476       .  S
C918        O945   1.268       .  A
C918        C999   1.475       .  S
Mg919       O926   2.095       .  S
Mg919       O927   2.108       .  S
Mg919       O920   2.322       .  S
Mg919       O921   2.303       .  S
Mg919       O948   2.209       .  S
O921        C925   1.272       .  A
O922       Mg929   2.325       .  S
O923        C942   1.274       .  A
O924        C944   1.273       .  A
O924       Mg940   2.345       .  S
O926       Mg940   2.117       .  S
O926        C937   1.237       .  S
O927       Mg946   2.150       .  S
O928       Mg940   2.306       .  S
Mg929       O945   2.217       .  S
O930       Mg946   2.267       .  S
H931        C936   1.083       .  S
O932       Mg940   2.158       .  S
O932        C935   1.241       .  S
H933        C935   1.081       .  S
H934        C937   1.082       .  S
O939       Mg946   2.322       .  S
C942        O947   1.276       .  A
C942       C1043   1.477       .  S
O943        C944   1.271       .  A
C944        C953   1.468       .  S
C949       C1257   1.495       .  S
C949        N950   1.381       .  A
C949        N954   1.374   1_655  A
N950        C951   1.371       .  A
C951        N952   1.339       .  A
N952        C953   1.336   1_655  A
C953        N954   1.361       .  A
C955       C1097   1.498       .  S
C955        N956   1.367       .  A
C955        N960   1.364       .  A
N956        C957   1.366   1_655  A
C957        N958   1.358       .  A
N958        C959   1.355       .  A
C959        N960   1.359   1_455  A
C961       C1105   1.502       .  S
C961        N962   1.376       .  A
C961        N966   1.381       .  A
N962        C963   1.361       .  A
C963        N964   1.339       .  A
N964        C965   1.341       .  A
C965        N966   1.370       .  A
C967       C1121   1.498       .  S
C967        N968   1.371       .  A
C967        N972   1.373       .  A
N968        C969   1.363   1_565  A
C969        N970   1.345       .  A
N970        C971   1.344       .  A
C971        N972   1.366   1_545  A
C973       C1273   1.496       .  S
C973        N974   1.367   1_655  A
C973        N978   1.367       .  A
N974        C975   1.363       .  A
C975        N976   1.350   1_455  A
N976        C977   1.353       .  A
C977        N978   1.365       .  A
C979       C1289   1.511   1_655  S
C979        N980   1.378       .  A
C979        N984   1.382   1_655  A
N980        C981   1.363       .  A
C981        N982   1.337       .  A
N982        C983   1.340   1_655  A
C983        N984   1.371       .  A
C985       C1137   1.497       .  S
C985        N986   1.369       .  A
C985        N990   1.374       .  A
N986        C987   1.363       .  A
C987        N988   1.347       .  A
N988        C989   1.351       .  A
C989        N990   1.369       .  A
C991       C1353   1.501       .  S
C991        N992   1.368       .  A
C991        N996   1.363   1_545  A
N992        C993   1.370       .  A
C993        N994   1.358   1_545  A
N994        C995   1.356       .  A
C995        N996   1.361       .  A
C997       C1313   1.497       .  S
C997        N998   1.376   1_554  A
C997       N1002   1.379       .  A
N998        C999   1.361       .  A
C999       N1000   1.342   1_556  A
N1000      C1001   1.343       .  A
C1001      N1002   1.368       .  A
C1003      C1073   1.503       .  S
C1003      N1004   1.372       .  A
C1003      N1008   1.371       .  A
N1004      C1005   1.365       .  A
C1005      N1006   1.347       .  A
N1006      C1007   1.349       .  A
C1007      N1008   1.363       .  A
C1009      C1417   1.492       .  S
C1009      N1010   1.376       .  A
C1009      N1014   1.374       .  A
N1010      C1011   1.364       .  A
C1011      N1012   1.341       .  A
N1012      C1013   1.339       .  A
C1013      N1014   1.361       .  A
C1015      C1329   1.499       .  S
C1015      N1016   1.367       .  A
C1015      N1020   1.368   1_554  A
N1016      C1017   1.367       .  A
C1017      N1018   1.354       .  A
N1018      C1019   1.352   1_554  A
C1019      N1020   1.364       .  A
C1021      C1305   1.495       .  S
C1021      N1022   1.377       .  A
C1021      N1026   1.374   1_565  A
N1022      C1023   1.367       .  A
C1023      N1024   1.337       .  A
N1024      C1025   1.336   1_565  A
C1025      N1026   1.362       .  A
C1027      C1393   1.496       .  S
C1027      N1028   1.371       .  A
C1027      N1032   1.371       .  A
N1028      C1029   1.365       .  A
C1029      N1030   1.346       .  A
N1030      C1031   1.347       .  A
C1031      N1032   1.363       .  A
C1033      C1241   1.496       .  S
C1033      N1034   1.377       .  A
C1033      N1038   1.377       .  A
N1034      C1035   1.363       .  A
C1035      N1036   1.339       .  A
N1036      C1037   1.339       .  A
C1037      N1038   1.364       .  A
C1039      C1201   1.500       .  S
C1039      N1040   1.367       .  A
C1039      N1044   1.367   1_655  A
N1040      C1041   1.364   1_554  A
C1041      N1042   1.354       .  A
N1042      C1043   1.357   1_655  A
C1043      N1044   1.365   1_556  A
C1045      C1169   1.502       .  S
C1045      N1046   1.370       .  A
C1045      N1050   1.375   1_554  A
N1046      C1047   1.362   1_545  A
C1047      N1048   1.346   1_554  A
N1048      C1049   1.346       .  A
C1049      N1050   1.367   1_565  A
C1051      C1193   1.502       .  S
C1051      N1052   1.367   1_545  A
C1051      N1056   1.370       .  A
N1052      C1053   1.362   1_455  A
C1053      N1054   1.350   1_565  A
N1054      C1055   1.352       .  A
C1055      N1056   1.370   1_655  A
C1057      C1058   1.407       .  A
C1057      C1062   1.412       .  A
C1058      H1067   1.084       .  S
C1058      C1059   1.404       .  A
C1059      H1068   1.081       .  S
C1059      C1060   1.405       .  A
C1060      C1066   1.417       .  A
C1060      C1061   1.414       .  A
C1061      C1063   1.405       .  A
C1061      C1062   1.418       .  A
C1062      H1069   1.082       .  S
C1063      H1070   1.081       .  S
C1063      C1064   1.405       .  A
C1064      H1071   1.084       .  S
C1064      C1065   1.409       .  A
C1065      C1066   1.412       .  A
C1066      H1072   1.081       .  S
C1073      C1074   1.410       .  A
C1073      C1078   1.412       .  A
C1074      H1083   1.083       .  S
C1074      C1075   1.406       .  A
C1075      H1084   1.082       .  S
C1075      C1076   1.405       .  A
C1076      C1082   1.420       .  A
C1076      C1077   1.414       .  A
C1077      C1079   1.403       .  A
C1077      C1078   1.415       .  A
C1078      H1085   1.082       .  S
C1079      H1086   1.082       .  S
C1079      C1080   1.401       .  A
C1080      H1087   1.084       .  S
C1080      C1081   1.405       .  A
C1081      C1082   1.412       .  A
C1082      H1088   1.083       .  S
C1089      C1090   1.405       .  A
C1089      C1094   1.408       .  A
C1090      H1099   1.084       .  S
C1090      C1091   1.403       .  A
C1091      H1100   1.082       .  S
C1091      C1092   1.405       .  A
C1092      C1098   1.415       .  A
C1092      C1093   1.415       .  A
C1093      C1095   1.402       .  A
C1093      C1094   1.413       .  A
C1094      H1101   1.082       .  S
C1095      H1102   1.082       .  S
C1095      C1096   1.400       .  A
C1096      H1103   1.083       .  S
C1096      C1097   1.409       .  A
C1097      C1098   1.412       .  A
C1098      H1104   1.082       .  S
C1105      C1106   1.408       .  A
C1105      C1110   1.412       .  A
C1106      H1115   1.084       .  S
C1106      C1107   1.405       .  A
C1107      H1116   1.081       .  S
C1107      C1108   1.405       .  A
C1108      C1114   1.421       .  A
C1108      C1109   1.415       .  A
C1109      C1111   1.404       .  A
C1109      C1110   1.420       .  A
C1110      H1117   1.081       .  S
C1111      H1118   1.081       .  S
C1111      C1112   1.404       .  A
C1112      H1119   1.084       .  S
C1112      C1113   1.409       .  A
C1113      C1114   1.414       .  A
C1114      H1120   1.081       .  S
C1121      C1122   1.408       .  A
C1121      C1126   1.411       .  A
C1122      H1131   1.084       .  S
C1122      C1123   1.406       .  A
C1123      H1132   1.081       .  S
C1123      C1124   1.406       .  A
C1124      C1130   1.418       .  A
C1124      C1125   1.414       .  A
C1125      C1127   1.403       .  A
C1125      C1126   1.413       .  A
C1126      H1133   1.082       .  S
C1127      H1134   1.081       .  S
C1127      C1128   1.401       .  A
C1128      H1135   1.084       .  S
C1128      C1129   1.406       .  A
C1129      C1130   1.413       .  A
C1130      H1136   1.082       .  S
C1137      C1138   1.406       .  A
C1137      C1142   1.410       .  A
C1138      H1147   1.084       .  S
C1138      C1139   1.409       .  A
C1139      H1148   1.081       .  S
C1139      C1140   1.408       .  A
C1140      C1146   1.420       .  A
C1140      C1141   1.413       .  A
C1141      C1143   1.403       .  A
C1141      C1142   1.415       .  A
C1142      H1149   1.082       .  S
C1143      H1150   1.082       .  S
C1143      C1144   1.402       .  A
C1144      H1151   1.083       .  S
C1144      C1145   1.408       .  A
C1145      C1146   1.417       .  A
C1146      H1152   1.081       .  S
C1153      C1154   1.406       .  A
C1153      C1158   1.411       .  A
C1154      H1163   1.084       .  S
C1154      C1155   1.404       .  A
C1155      H1164   1.081       .  S
C1155      C1156   1.405       .  A
C1156      C1162   1.416       .  A
C1156      C1157   1.414       .  A
C1157      C1159   1.404       .  A
C1157      C1158   1.415       .  A
C1158      H1165   1.082       .  S
C1159      H1166   1.081       .  S
C1159      C1160   1.403       .  A
C1160      H1167   1.084       .  S
C1160      C1161   1.409       .  A
C1161      C1162   1.412       .  A
C1162      H1168   1.081       .  S
C1169      C1170   1.411       .  A
C1169      C1174   1.409   1_554  A
C1170      H1179   1.084       .  S
C1170      C1171   1.408       .  A
C1171      H1180   1.082       .  S
C1171      C1172   1.407       .  A
C1172      C1178   1.421       .  A
C1172      C1173   1.414   1_554  A
C1173      C1175   1.402       .  A
C1173      C1174   1.413       .  A
C1174      H1181   1.082       .  S
C1175      H1182   1.082       .  S
C1175      C1176   1.400       .  A
C1176      H1183   1.084       .  S
C1176      C1177   1.406   1_556  A
C1177      C1178   1.415       .  A
C1178      H1184   1.082       .  S
C1185      C1186   1.409       .  A
C1185      C1190   1.412       .  A
C1186      H1195   1.083       .  S
C1186      C1187   1.405       .  A
C1187      H1196   1.081       .  S
C1187      C1188   1.405       .  A
C1188      C1194   1.420       .  A
C1188      C1189   1.415       .  A
C1189      C1191   1.404   1_545  A
C1189      C1190   1.419       .  A
C1190      H1197   1.082   1_545  S
C1191      H1198   1.081       .  S
C1191      C1192   1.403       .  A
C1192      H1199   1.084       .  S
C1192      C1193   1.408   1_565  A
C1193      C1194   1.413       .  A
C1194      H1200   1.082       .  S
C1201      C1202   1.408       .  A
C1201      C1206   1.412   1_655  A
C1202      H1211   1.084       .  S
C1202      C1203   1.404       .  A
C1203      H1212   1.081       .  S
C1203      C1204   1.405       .  A
C1204      C1210   1.416       .  A
C1204      C1205   1.414   1_655  A
C1205      C1207   1.405       .  A
C1205      C1206   1.415       .  A
C1206      H1213   1.082       .  S
C1207      H1214   1.081       .  S
C1207      C1208   1.403       .  A
C1208      H1215   1.084       .  S
C1208      C1209   1.406       .  A
C1209      C1210   1.412   1_455  A
C1210      H1216   1.082       .  S
C1217      C1218   1.409       .  A
C1217      C1222   1.410       .  A
C1218      H1227   1.084       .  S
C1218      C1219   1.403       .  A
C1219      H1228   1.082       .  S
C1219      C1220   1.404       .  A
C1220      C1226   1.417       .  A
C1220      C1221   1.415       .  A
C1221      C1223   1.403       .  A
C1221      C1222   1.415       .  A
C1222      H1229   1.082       .  S
C1223      H1230   1.082       .  S
C1223      C1224   1.402       .  A
C1224      H1231   1.084       .  S
C1224      C1225   1.407       .  A
C1225      C1226   1.411       .  A
C1226      H1232   1.082       .  S
C1233      C1234   1.407       .  A
C1233      C1238   1.411       .  A
C1234      H1243   1.084       .  S
C1234      C1235   1.403       .  A
C1235      H1244   1.081       .  S
C1235      C1236   1.405       .  A
C1236      C1242   1.415       .  A
C1236      C1237   1.414       .  A
C1237      C1239   1.405       .  A
C1237      C1238   1.415       .  A
C1238      H1245   1.081       .  S
C1239      H1246   1.081       .  S
C1239      C1240   1.403       .  A
C1240      H1247   1.084       .  S
C1240      C1241   1.407       .  A
C1241      C1242   1.412       .  A
C1242      H1248   1.081       .  S
C1249      C1250   1.410       .  A
C1249      C1254   1.414   1_455  A
C1250      H1259   1.083       .  S
C1250      C1251   1.404       .  A
C1251      H1260   1.082       .  S
C1251      C1252   1.404       .  A
C1252      C1258   1.418       .  A
C1252      C1253   1.414   1_455  A
C1253      C1255   1.405       .  A
C1253      C1254   1.418       .  A
C1254      H1261   1.082       .  S
C1255      H1262   1.082       .  S
C1255      C1256   1.404       .  A
C1256      H1263   1.084       .  S
C1256      C1257   1.406       .  A
C1257      C1258   1.410   1_655  A
C1258      H1264   1.082       .  S
C1265      C1266   1.407       .  A
C1265      C1270   1.410       .  A
C1266      H1275   1.084       .  S
C1266      C1267   1.400       .  A
C1267      H1276   1.081       .  S
C1267      C1268   1.403       .  A
C1268      C1274   1.413       .  A
C1268      C1269   1.415       .  A
C1269      C1271   1.404   1_655  A
C1269      C1270   1.415       .  A
C1270      H1277   1.082   1_655  S
C1271      H1278   1.081       .  S
C1271      C1272   1.403       .  A
C1272      H1279   1.083       .  S
C1272      C1273   1.408   1_455  A
C1273      C1274   1.410       .  A
C1274      H1280   1.081       .  S
C1281      C1282   1.407       .  A
C1281      C1286   1.412       .  A
C1282      H1291   1.084       .  S
C1282      C1283   1.403       .  A
C1283      H1292   1.082       .  S
C1283      C1284   1.404       .  A
C1284      C1290   1.420       .  A
C1284      C1285   1.415       .  A
C1285      C1287   1.404       .  A
C1285      C1286   1.422       .  A
C1286      H1293   1.082       .  S
C1287      H1294   1.082       .  S
C1287      C1288   1.405       .  A
C1288      H1295   1.083       .  S
C1288      C1289   1.411       .  A
C1289      C1290   1.414       .  A
C1290      H1296   1.082       .  S
C1297      C1298   1.410       .  A
C1297      C1302   1.414       .  A
C1298      H1307   1.084       .  S
C1298      C1299   1.401       .  A
C1299      H1308   1.081       .  S
C1299      C1300   1.402       .  A
C1300      C1306   1.416       .  A
C1300      C1301   1.415       .  A
C1301      C1303   1.406   1_565  A
C1301      C1302   1.419       .  A
C1302      H1309   1.081   1_565  S
C1303      H1310   1.081       .  S
C1303      C1304   1.405   1_545  A
C1304      H1311   1.084   1_565  S
C1304      C1305   1.407       .  A
C1305      C1306   1.409       .  A
C1306      H1312   1.082       .  S
C1313      C1314   1.408       .  A
C1313      C1318   1.411   1_554  A
C1314      H1323   1.084       .  S
C1314      C1315   1.403       .  A
C1315      H1324   1.081       .  S
C1315      C1316   1.404       .  A
C1316      C1322   1.416       .  A
C1316      C1317   1.414       .  A
C1317      C1319   1.404   1_554  A
C1317      C1318   1.416   1_554  A
C1318      H1325   1.082       .  S
C1319      H1326   1.081       .  S
C1319      C1320   1.403       .  A
C1320      H1327   1.084       .  S
C1320      C1321   1.408   1_556  A
C1321      C1322   1.411       .  A
C1322      H1328   1.082       .  S
C1329      C1330   1.406   1_554  A
C1329      C1334   1.414       .  A
C1330      H1339   1.084       .  S
C1330      C1331   1.403       .  A
C1331      H1340   1.081       .  S
C1331      C1332   1.404   1_556  A
C1332      C1338   1.416       .  A
C1332      C1333   1.414       .  A
C1333      C1335   1.405       .  A
C1333      C1334   1.419       .  A
C1334      H1341   1.082       .  S
C1335      H1342   1.082       .  S
C1335      C1336   1.405       .  A
C1336      H1343   1.084       .  S
C1336      C1337   1.409       .  A
C1337      C1338   1.411       .  A
C1338      H1344   1.082   1_554  S
C1345      C1346   1.410   1_545  A
C1345      C1350   1.413       .  A
C1346      H1355   1.084       .  S
C1346      C1347   1.405       .  A
C1347      H1356   1.081       .  S
C1347      C1348   1.404       .  A
C1348      C1354   1.419       .  A
C1348      C1349   1.415   1_565  A
C1349      C1351   1.404       .  A
C1349      C1350   1.420       .  A
C1350      H1357   1.082       .  S
C1351      H1358   1.082       .  S
C1351      C1352   1.404       .  A
C1352      H1359   1.084       .  S
C1352      C1353   1.409       .  A
C1353      C1354   1.412   1_545  A
C1354      H1360   1.082       .  S
C1361      C1362   1.408       .  A
C1361      C1366   1.409       .  A
C1362      H1371   1.084       .  S
C1362      C1363   1.404       .  A
C1363      H1372   1.081       .  S
C1363      C1364   1.404       .  A
C1364      C1370   1.415       .  A
C1364      C1365   1.414       .  A
C1365      C1367   1.403   1_545  A
C1365      C1366   1.413       .  A
C1366      H1373   1.082   1_545  S
C1367      H1374   1.081       .  S
C1367      C1368   1.401       .  A
C1368      H1375   1.084       .  S
C1368      C1369   1.407   1_565  A
C1369      C1370   1.411       .  A
C1370      H1376   1.082       .  S
C1377      C1378   1.408       .  A
C1377      C1382   1.414       .  A
C1378      H1387   1.084       .  S
C1378      C1379   1.404       .  A
C1379      H1388   1.081       .  S
C1379      C1380   1.405       .  A
C1380      C1386   1.416       .  A
C1380      C1381   1.414       .  A
C1381      C1383   1.406       .  A
C1381      C1382   1.417       .  A
C1382      H1389   1.081       .  S
C1383      H1390   1.081       .  S
C1383      C1384   1.405       .  A
C1384      H1391   1.084       .  S
C1384      C1385   1.406       .  A
C1385      C1386   1.412       .  A
C1386      H1392   1.081       .  S
C1393      C1394   1.407       .  A
C1393      C1398   1.411       .  A
C1394      H1403   1.084       .  S
C1394      C1395   1.403       .  A
C1395      H1404   1.081       .  S
C1395      C1396   1.404       .  A
C1396      C1402   1.415       .  A
C1396      C1397   1.414       .  A
C1397      C1399   1.404       .  A
C1397      C1398   1.414       .  A
C1398      H1405   1.081       .  S
C1399      H1406   1.081       .  S
C1399      C1400   1.402       .  A
C1400      H1407   1.084       .  S
C1400      C1401   1.407       .  A
C1401      C1402   1.411       .  A
C1402      H1408   1.082       .  S
C1409      C1410   1.407       .  A
C1409      C1414   1.409       .  A
C1410      H1419   1.084       .  S
C1410      C1411   1.401       .  A
C1411      H1420   1.081       .  S
C1411      C1412   1.403       .  A
C1412      C1418   1.413       .  A
C1412      C1413   1.415       .  A
C1413      C1415   1.404       .  A
C1413      C1414   1.415       .  A
C1414      H1421   1.082       .  S
C1415      H1422   1.081       .  S
C1415      C1416   1.402       .  A
C1416      H1423   1.084       .  S
C1416      C1417   1.407       .  A
C1417      C1418   1.409       .  A
C1418      H1424   1.082       .  S
C1425      C1426   1.408       .  A
C1425      C1430   1.409       .  A
C1426      H1435   1.084       .  S
C1426      C1427   1.404       .  A
C1427      H1436   1.081       .  S
C1427      C1428   1.404       .  A
C1428      C1434   1.417       .  A
C1428      C1429   1.415       .  A
C1429      C1431   1.403   1_556  A
C1429      C1430   1.416       .  A
C1430      H1437   1.082   1_556  S
C1431      H1438   1.081       .  S
C1431      C1432   1.401       .  A
C1432      H1439   1.084       .  S
C1432      C1433   1.408   1_554  A
C1433      C1434   1.412       .  A
C1434      H1440   1.082       .  S
