geometry optimzed in LAMMPS
_audit_creation_date              2020-11-30 
_audit_creation_method            'lammps2cif' 
_symmetry_space_group_name_H-M    'P1' 
_symmetry_Int_Tables_number       1 
_symmetry_cell_setting            triclinic 
loop_ 
_symmetry_equiv_pos_as_xyz 
  x,y,z 
_cell_length_a                    40.5882712 
_cell_length_b                    33.298646619953225 
_cell_length_c                    36.09681668314145 
_cell_angle_alpha                 89.97163669106645 
_cell_angle_beta                  90.12622375649184 
_cell_angle_gamma                 89.96226958875938 
loop_ 
_atom_site_label 
_atom_site_type_symbol 
_atom_site_fract_x 
_atom_site_fract_y 
_atom_site_fract_z 
_atom_site_charge 
C1          C  0.48638500  0.16476845  0.00269562     0.86300
C2          C  0.50216157  0.13032526  0.98013626    -0.53900
C3          C  0.53394579  0.13735388  0.96943956     0.09300
C4          C  0.54712800  0.17789057  0.98270766     0.20200
C5          C  0.51038538  0.17041525  0.03541073    -0.54600
C6          C  0.54203523  0.17683357  0.02470359     0.09400
C7          C  0.49072659  0.20228212  0.97871585    -0.54200
C8          C  0.52240579  0.20858398  0.96762942     0.09900
H9          H  0.48948510  0.10225048  0.97470501     0.14400
H10         H  0.57287076  0.18462698  0.97453447     0.00200
H11         H  0.50448724  0.16613109  0.06435110     0.14800
H12         H  0.47021682  0.22058530  0.96920354     0.14500
In13       In  0.35140429  0.47137413  0.54442833     1.36900
C14         C  0.38084969  0.40124405  0.53743976     0.77400
O15         O  0.35753589  0.52923297  0.51311933    -0.61000
O16         O  0.39859030  0.49018399  0.51884307    -0.51900
C17         C  0.29520226  0.45640564  0.50869991     0.70100
O18         O  0.30915476  0.43090877  0.52927846    -0.46800
C19         C  0.35356684  0.49735005  0.61468965     0.74800
O20         O  0.36979079  0.41334350  0.56816302    -0.58600
O21         O  0.32679275  0.49116994  0.59773302    -0.48700
O22         O  0.37515212  0.42406946  0.51029790    -0.55100
C23         C  0.38748385  0.52262837  0.50610706     0.85000
O24         O  0.30812392  0.49082829  0.50970390    -0.57000
O25         O  0.37871152  0.49174489  0.59523573    -0.60300
C26         C  0.70866287  0.13904374  0.14126358     0.86300
C27         C  0.69444521  0.12947322  0.17976544    -0.53900
C28         C  0.66724214  0.15157677  0.18940559     0.09300
C29         C  0.65760085  0.18303297  0.15952923     0.20200
C30         C  0.67865912  0.13514499  0.11478906    -0.54600
C31         C  0.65202561  0.15832813  0.12428603     0.09400
C32         C  0.71518916  0.18472610  0.14123460    -0.54200
C33         C  0.68836287  0.20816745  0.14938231     0.09900
H34         H  0.70375754  0.10504351  0.19676829     0.14400
H35         H  0.63605318  0.20137296  0.16783844     0.00200
H36         H  0.67916010  0.11836441  0.08906979     0.14800
H37         H  0.73739581  0.19748337  0.12931865     0.14500
C38         C  0.66334981  0.36214047  0.07181180     0.86300
C39         C  0.69483448  0.37435628  0.05063438    -0.53900
C40         C  0.69124079  0.40700777  0.02802984     0.09300
C41         C  0.65681968  0.42567655  0.02905427     0.20200
C42         C  0.65357455  0.40075997  0.09252209    -0.54600
C43         C  0.65053399  0.43402751  0.07060073     0.09400
C44         C  0.63691005  0.35796603  0.04113943    -0.54200
C45         C  0.63407164  0.39048155  0.01766052     0.09900
H46         H  0.71766229  0.35737114  0.05208555     0.14400
H47         H  0.65469404  0.45279299  0.01132093     0.00200
H48         H  0.65224878  0.40370460  0.12219113     0.14800
H49         H  0.62308644  0.33040754  0.03736380     0.14500
C50         C  0.52418985  0.38641077  0.82688358     0.86300
C51         C  0.51718349  0.34337394  0.83962384    -0.53900
C52         C  0.54407497  0.32198684  0.85037481     0.09300
C53         C  0.57651868  0.34464158  0.84456007     0.20200
C54         C  0.54482084  0.40430825  0.85949504    -0.54600
C55         C  0.57210787  0.38207818  0.86955535     0.09400
C56         C  0.54895900  0.38161617  0.79495557    -0.54200
C57         C  0.57617813  0.35895314  0.80357045     0.09900
H58         H  0.49231845  0.33293457  0.84537211     0.14400
H59         H  0.59863286  0.32643239  0.85100593     0.00200
H60         H  0.53648686  0.42910901  0.87623147     0.14800
H61         H  0.54419181  0.39292849  0.76724473     0.14500
C62         C  0.32736691  0.42616599  0.80771024     0.86300
C63         C  0.36303932  0.40942132  0.80937398    -0.53900
C64         C  0.38719519  0.43812815  0.80615030     0.09300
C65         C  0.37350384  0.48101000  0.80115761     0.20200
C66         C  0.32692799  0.45872215  0.83855494    -0.54600
C67         C  0.35071629  0.48787559  0.83464683     0.09400
C68         C  0.32625236  0.44996202  0.77161125    -0.54200
C69         C  0.34997143  0.47846798  0.76785744     0.09900
H70         H  0.36892503  0.37801679  0.81389810     0.14400
H71         H  0.39287336  0.50429563  0.79790088     0.00200
H72         H  0.30823589  0.46024486  0.85995245     0.14800
H73         H  0.30865169  0.44330275  0.74970404     0.14500
C74         C  0.51428555  0.79621324  0.92562149     0.86300
C75         C  0.50690922  0.75836513  0.94796848    -0.53900
C76         C  0.47464627  0.75445797  0.95850597     0.09300
C77         C  0.45275478  0.78937306  0.94531080     0.20200
C78         C  0.48993703  0.79521471  0.89294472    -0.54600
C79         C  0.45766095  0.79211133  0.90316864     0.09400
C80         C  0.50147997  0.83123934  0.94949678    -0.54200
C81         C  0.46950446  0.82736057  0.96005658     0.09900
H82         H  0.52619598  0.73753726  0.95612495     0.14400
H83         H  0.42663865  0.78640770  0.95318359     0.00200
H84         H  0.49676041  0.80053869  0.86445567     0.14800
H85         H  0.51593809  0.85781095  0.95589808     0.14500
In86       In  0.65802956  0.50513944  0.37621108     1.36900
C87         C  0.63056171  0.57646542  0.38169743     0.77400
O88         O  0.67988115  0.48325271  0.32208323    -0.61000
O89         O  0.62810246  0.48449979  0.32827895    -0.51900
C90         C  0.71479400  0.51767679  0.41021209     0.70100
O91         O  0.70082464  0.54423229  0.39088961    -0.46800
C92         C  0.62220175  0.45477768  0.41547480     0.74800
O93         O  0.64156917  0.56326505  0.35132524    -0.58600
O94         O  0.61119711  0.48757213  0.40335214    -0.48700
O95         O  0.63577410  0.55425003  0.40944954    -0.55100
C96         C  0.65200850  0.47733766  0.30740859     0.85000
O97         O  0.70187425  0.48333015  0.40809827    -0.57000
O98         O  0.65213621  0.44820537  0.40853313    -0.60300
C99         C  0.29262012  0.81832163  0.77824719     0.86300
C100        C  0.28997135  0.77216434  0.78315017    -0.53900
C101        C  0.31842898  0.75123105  0.77614193     0.09300
C102        C  0.34683173  0.77891592  0.76358516     0.20200
C103        C  0.32222965  0.82896602  0.80340427    -0.54600
C104        C  0.35076755  0.80795166  0.79649525     0.09400
C105        C  0.30577348  0.82505614  0.73869169    -0.54200
C106        C  0.33460764  0.80544591  0.73094397     0.09900
H107        H  0.26971048  0.75805781  0.79760609     0.14400
H108        H  0.36849537  0.76100996  0.75559911     0.00200
H109        H  0.31983031  0.85045347  0.82574012     0.14800
H110        H  0.29508692  0.84708807  0.72001466     0.14500
C111        C  0.33784446  0.59898066  0.85842137     0.86300
C112        C  0.34795927  0.56235642  0.83536296    -0.53900
C113        C  0.34959866  0.52710138  0.85469841     0.09300
C114        C  0.34235768  0.53199956  0.89647675     0.20200
C115        C  0.30557458  0.58598316  0.87777620    -0.54600
C116        C  0.30794920  0.55100025  0.89764358     0.09400
C117        C  0.36274892  0.60054946  0.89102413    -0.54200
C118        C  0.36518105  0.56569921  0.91107692     0.09900
H119        H  0.35071813  0.56372483  0.80545605     0.14400
H120        H  0.34441316  0.50346022  0.91224088     0.00200
H121        H  0.28335181  0.60411986  0.87758016     0.14800
H122        H  0.37451865  0.62796060  0.90040488     0.14500
C123        C  0.47444196  0.57509409  0.09960523     0.86300
C124        C  0.45297877  0.55351852  0.06969793    -0.53900
C125        C  0.42525480  0.57430842  0.05873563     0.09300
C126        C  0.42079432  0.61391830  0.08041828     0.20200
C127        C  0.48028335  0.61669079  0.08282910    -0.54600
C128        C  0.45269878  0.63620994  0.07125919     0.09400
C129        C  0.45065801  0.58282991  0.13196085    -0.54200
C130        C  0.42266035  0.60379424  0.12253708     0.09900
H131        H  0.46037082  0.52655564  0.05527448     0.14400
H132        H  0.39853244  0.63116432  0.07243525     0.00200
H133        H  0.50482344  0.62757574  0.07615378     0.14800
H134        H  0.45645142  0.57434082  0.16027970     0.14500
C135        C  0.67336493  0.53577218  0.11428132     0.86300
C136        C  0.67283665  0.50295270  0.08370190    -0.53900
C137        C  0.64852746  0.47463596  0.08801748     0.09300
C138        C  0.62599364  0.48276145  0.12152410     0.20200
C139        C  0.63803817  0.55397559  0.11281729    -0.54600
C140        C  0.61311180  0.52602202  0.11630119     0.09400
C141        C  0.67397454  0.51238229  0.15056217    -0.54200
C142        C  0.64961936  0.48493923  0.15460041     0.09900
H143        H  0.69180605  0.50010621  0.06272304     0.14400
H144        H  0.60631674  0.45999394  0.12540283     0.00200
H145        H  0.63301597  0.58564209  0.10860335     0.14800
H146        H  0.69165647  0.51861678  0.17251076     0.14500
C147        C  0.49033394  0.30288549  0.50640060     0.86300
C148        C  0.49291308  0.27262676  0.47437145    -0.53900
C149        C  0.52459965  0.26626073  0.46280142     0.09300
C150        C  0.55049480  0.29109064  0.48391526     0.20200
C151        C  0.51329784  0.28505824  0.53606681    -0.54600
C152        C  0.54544571  0.28148004  0.52531163     0.09400
C153        C  0.50776045  0.34076710  0.49222145    -0.54200
C154        C  0.53895612  0.33454333  0.47999360     0.09900
H155        H  0.47202200  0.25679355  0.46257102     0.14400
H156        H  0.57573787  0.28652296  0.47318723     0.00200
H157        H  0.50479494  0.27663480  0.56337257     0.14800
H158        H  0.49628767  0.37024911  0.49248185     0.14500
In159      In  0.34489540  0.00655043  0.04190465     1.36900
C160        C  0.37191453  0.07731598  0.03067279     0.77400
O161        O  0.32195980  0.98700130  0.09571709    -0.61000
O162        O  0.37274095  0.00194073  0.09507440    -0.51900
C163        C  0.28814198  0.01377414  0.00525614     0.70100
O164        O  0.30639087  0.98335097  0.00216535    -0.46800
C165        C  0.38460421  0.95068924  0.01541901     0.74800
O166        O  0.36010573  0.06748845  0.06167292    -0.58600
O167        O  0.36013592  0.94231647  0.03547499    -0.48700
O168        O  0.36805846  0.05176133  0.00527019    -0.55100
C169        C  0.34850916  0.99035741  0.11391083     0.85000
O170        O  0.29726562  0.03819137  0.02984524    -0.57000
O171        O  0.38797016  0.98739275  0.00800267    -0.60300
C172        C  0.71323920  0.31087211  0.64317314     0.86300
C173        C  0.71776703  0.26500638  0.64882193    -0.53900
C174        C  0.68916276  0.24396123  0.65453434     0.09300
C175        C  0.65921829  0.27189396  0.66011947     0.20200
C176        C  0.68564940  0.31353570  0.61368901    -0.54600
C177        C  0.65751903  0.29349180  0.62291425     0.09400
C178        C  0.69668183  0.32530338  0.67917471    -0.54200
C179        C  0.66835606  0.30527725  0.68822657     0.09900
H180        H  0.73970801  0.24871023  0.64141064     0.14400
H181        H  0.63625021  0.25558510  0.66739162     0.00200
H182        H  0.68832229  0.32938543  0.58755563     0.14800
H183        H  0.70573265  0.35066285  0.69512815     0.14500
C184        C  0.66660592  0.09303751  0.57110233     0.86300
C185        C  0.65636097  0.05512730  0.59255676    -0.53900
C186        C  0.65389364  0.02130055  0.57141601     0.09300
C187        C  0.66079275  0.02857907  0.52976469     0.20200
C188        C  0.69868352  0.07965960  0.55144789    -0.54600
C189        C  0.69561136  0.04655722  0.52911888     0.09400
C190        C  0.64142195  0.09718532  0.53919452    -0.54200
C191        C  0.63844558  0.06382976  0.51715567     0.09900
H192        H  0.65557222  0.05340565  0.62251528     0.14400
H193        H  0.65774335  0.00088909  0.51310828     0.00200
H194        H  0.72168161  0.09599771  0.55402920     0.14800
H195        H  0.62889567  0.12521798  0.53294253     0.14500
C196        C  0.52259461  0.08025763  0.33209179     0.86300
C197        C  0.54274739  0.05993708  0.36367919    -0.53900
C198        C  0.57134464  0.07961770  0.37334909     0.09300
C199        C  0.57767104  0.11728479  0.34897028     0.20200
C200        C  0.51826683  0.12336883  0.34607675    -0.54600
C201        C  0.54662841  0.14286457  0.35505302     0.09400
C202        C  0.54705622  0.08371381  0.29956214    -0.54200
C203        C  0.57576244  0.10359384  0.30789136     0.09900
H204        H  0.53436297  0.03414692  0.37921216     0.14400
H205        H  0.60064515  0.13376752  0.35572619     0.00200
H206        H  0.49409960  0.13592774  0.35184520     0.14800
H207        H  0.54124391  0.07346953  0.27175678     0.14500
C208        C  0.32328290  0.04900660  0.31382598     0.86300
C209        C  0.32324972  0.01388775  0.34210141    -0.53900
C210        C  0.34665552  0.98503846  0.33552977     0.09300
C211        C  0.36935939  0.99488146  0.30263543     0.20200
C212        C  0.35900968  0.06561170  0.31649194    -0.54600
C213        C  0.38320362  0.03703028  0.31114008     0.09400
C214        C  0.32200832  0.02864187  0.27603952    -0.54200
C215        C  0.34585052  0.00097413  0.26975929     0.09900
H216        H  0.30586022  0.01080819  0.36460840     0.14400
H217        H  0.38858810  0.97183717  0.29736458     0.00200
H218        H  0.36463443  0.09673585  0.32279812     0.14800
H219        H  0.30438008  0.03731853  0.25473003     0.14500
C220        C  0.51857338  0.67132135  0.40797423     0.86300
C221        C  0.50174655  0.63279040  0.42191277    -0.53900
C222        C  0.47036782  0.63823601  0.43409739     0.09300
C223        C  0.45830804  0.68144074  0.43070723     0.20200
C224        C  0.49501114  0.68829824  0.37811601    -0.54600
C225        C  0.46292035  0.69164401  0.38954311     0.09400
C226        C  0.51534529  0.70138882  0.44015698    -0.54200
C227        C  0.48369594  0.70653430  0.45179753     0.09900
H228        H  0.51375894  0.60363329  0.42172540     0.14400
H229        H  0.43308174  0.68554701  0.44169778     0.00200
H230        H  0.50269446  0.69594347  0.35030553     0.14800
H231        H  0.53578649  0.71790986  0.45214553     0.14500
In232      In  0.64886212  0.95137669  0.88289619     1.36900
C233        C  0.62602543  0.87874899  0.89444648     0.77400
O234        O  0.60140277  0.98157633  0.89509801    -0.61000
O235        O  0.64553247  0.01505477  0.90221816    -0.51900
C236        C  0.69957494  0.94222144  0.92820097     0.70100
O237        O  0.67044396  0.94688065  0.93912523    -0.46800
C238        C  0.64643797  0.96665278  0.81082195     0.74800
O239        O  0.64619532  0.88539477  0.86857082    -0.58600
O240        O  0.67143857  0.97526684  0.83033498    -0.48700
O241        O  0.61832849  0.90882340  0.91367143    -0.55100
C242        C  0.61452738  0.01427231  0.90444317     0.85000
O243        O  0.70331146  0.94411044  0.89339317    -0.57000
O244        O  0.62367586  0.94931480  0.82822237    -0.60300
C245        C  0.28926146  0.65177368  0.28548932     0.86300
C246        C  0.30445027  0.63874918  0.24840118    -0.53900
C247        C  0.33169728  0.66004453  0.23798879     0.09300
C248        C  0.34104834  0.69351749  0.26578537     0.20200
C249        C  0.31832726  0.64994016  0.31342871    -0.54600
C250        C  0.34541329  0.67144742  0.30248263     0.09400
C251        C  0.28304073  0.69740188  0.28143182    -0.54200
C252        C  0.31048066  0.71988124  0.27350744     0.09900
H253        H  0.29562881  0.61295038  0.23288738     0.14400
H254        H  0.36309837  0.71096777  0.25729107     0.00200
H255        H  0.31739799  0.63386194  0.33957950     0.14800
H256        H  0.26099318  0.71177818  0.29190857     0.14500
C257        C  0.32960308  0.87349560  0.35272623     0.86300
C258        C  0.29716684  0.88855357  0.37033505    -0.53900
C259        C  0.30062413  0.92153867  0.39257909     0.09300
C260        C  0.33596611  0.93770788  0.39412736     0.20200
C261        C  0.34249905  0.91072919  0.33175681    -0.54600
C262        C  0.34515266  0.94457869  0.35312654     0.09400
C263        C  0.35332616  0.86830254  0.38572494    -0.54200
C264        C  0.35661185  0.90161896  0.40745970     0.09900
H265        H  0.27380400  0.87309462  0.36702694     0.14400
H266        H  0.33880608  0.96486442  0.41170633     0.00200
H267        H  0.34528745  0.91207117  0.30193815     0.14800
H268        H  0.36523069  0.83996771  0.39239351     0.14500
C269        C  0.47671899  0.88606173  0.58674455     0.86300
C270        C  0.48237798  0.84356059  0.57188546    -0.53900
C271        C  0.45469555  0.82267918  0.56345799     0.09300
C272        C  0.42278897  0.84598110  0.57117706     0.20200
C273        C  0.45477748  0.90592495  0.55672251    -0.54600
C274        C  0.42684909  0.88473912  0.54771292     0.09400
C275        C  0.45334414  0.88057117  0.61987281    -0.54200
C276        C  0.42525504  0.85858952  0.61268056     0.09900
H277        H  0.50679096  0.83238644  0.56500936     0.14400
H278        H  0.40080438  0.82778751  0.56422664     0.00200
H279        H  0.46087866  0.93301199  0.54195611     0.14800
H280        H  0.45921217  0.89319750  0.64672476     0.14500
C281        C  0.67518049  0.91603033  0.61102348     0.86300
C282        C  0.63967422  0.90015909  0.60426433    -0.53900
C283        C  0.61545778  0.92858521  0.60946654     0.09300
C284        C  0.62880510  0.97011938  0.62050240     0.20200
C285        C  0.67765741  0.95265221  0.58453901    -0.54600
C286        C  0.65339921  0.98099142  0.58956376     0.09400
C287        C  0.67385706  0.93425401  0.64964270    -0.54200
C288        C  0.65015023  0.96222392  0.65494724     0.09900
H289        H  0.63384907  0.86999013  0.59518266     0.14400
H290        H  0.60933646  0.99303738  0.62511901     0.00200
H291        H  0.69758832  0.95671825  0.56488792     0.14800
H292        H  0.68996454  0.92437386  0.67201375     0.14500
C293        C  0.97705314  0.17580814  0.40616828     0.86300
C294        C  0.98124520  0.21031275  0.43399653    -0.53900
C295        C  0.01294960  0.21576166  0.44542481     0.09300
C296        C  0.03770734  0.18729634  0.42737701     0.20200
C297        C  0.00078784  0.18624881  0.37417999    -0.54600
C298        C  0.03283098  0.19095274  0.38539835     0.09400
C299        C  0.99330234  0.13912527  0.42484146    -0.54200
C300        C  0.02487758  0.14535843  0.43618839     0.09900
H301        H  0.96083497  0.22761330  0.44508304     0.14400
H302        H  0.06328121  0.19240645  0.43716458     0.00200
H303        H  0.99406730  0.18680793  0.34515436     0.14800
H304        H  0.98091118  0.11041651  0.42786595     0.14500
In305      In  0.84802791  0.45716003  0.88366439     1.36900
C306        C  0.87483577  0.38433775  0.88773254     0.77400
O307        O  0.87416685  0.47097757  0.83135490    -0.61000
O308        O  0.82211233  0.47717031  0.83104651    -0.51900
C309        C  0.79409504  0.45038510  0.92528191     0.70100
O310        O  0.82014836  0.46725409  0.93598222    -0.46800
C311        C  0.88817340  0.51362043  0.90845314     0.74800
O312        O  0.86298709  0.39813599  0.85810007    -0.58600
O313        O  0.85966466  0.52185182  0.89645845    -0.48700
O314        O  0.87038370  0.40628637  0.91559110    -0.55100
C315        C  0.84873118  0.47904524  0.81284003     0.85000
O316        O  0.79447364  0.43939904  0.89178117    -0.57000
O317        O  0.89518574  0.47678245  0.90870534    -0.60300
C318        C  0.20540865  0.14916572  0.28128469     0.86300
C319        C  0.20934831  0.19526686  0.28042150    -0.53900
C320        C  0.18134554  0.21660427  0.27150807     0.09300
C321        C  0.15208480  0.18819391  0.26174902     0.20200
C322        C  0.17577067  0.14361415  0.30779465    -0.54600
C323        C  0.14807660  0.16365141  0.29716194     0.09400
C324        C  0.19186913  0.13749287  0.24264679    -0.54200
C325        C  0.16335216  0.15691030  0.23237895     0.09900
H326        H  0.23076951  0.20927641  0.29281234     0.14400
H327        H  0.12941040  0.20440508  0.25329636     0.00200
H328        H  0.17692916  0.12810225  0.33419242     0.14800
H329        H  0.20218906  0.11284738  0.22677871     0.14500
C330        C  0.16634813  0.36729513  0.35691065     0.86300
C331        C  0.15856429  0.40525778  0.33465052    -0.53900
C332        C  0.15699078  0.43968753  0.35498779     0.09300
C333        C  0.16253804  0.43285637  0.39710636     0.20200
C334        C  0.19808035  0.37752637  0.37891468    -0.54600
C335        C  0.19599089  0.41145406  0.40030951     0.09400
C336        C  0.13982075  0.36580765  0.38779704    -0.54200
C337        C  0.13786738  0.39995964  0.40907422     0.09900
H338        H  0.15627650  0.40512132  0.30465467     0.14400
H339        H  0.16072274  0.46061493  0.41402187     0.00200
H340        H  0.21972773  0.35840904  0.37920600     0.14800
H341        H  0.12630841  0.33876860  0.39487232     0.14500
C342        C  0.02249430  0.38559838  0.59274713     0.86300
C343        C  0.04391651  0.40697677  0.56302206    -0.53900
C344        C  0.07133854  0.38580009  0.55208859     0.09300
C345        C  0.07541594  0.34563396  0.57329058     0.20200
C346        C  0.01577764  0.34440724  0.57564718    -0.54600
C347        C  0.04291821  0.32351624  0.56492355     0.09400
C348        C  0.04657807  0.37729765  0.62495074    -0.54200
C349        C  0.07433068  0.35601076  0.61537869     0.09900
H350        H  0.03728918  0.43487411  0.54957388     0.14400
H351        H  0.09743242  0.32815780  0.56491210     0.00200
H352        H  0.99095334  0.33474887  0.56865949     0.14800
H353        H  0.04145382  0.38645352  0.65321723     0.14500
C354        C  0.82516074  0.41985593  0.61261696     0.86300
C355        C  0.82349978  0.45544444  0.58517800    -0.53900
C356        C  0.84709011  0.48432387  0.59094158     0.09300
C357        C  0.87048307  0.47474470  0.62357086     0.20200
C358        C  0.86108286  0.40423389  0.60879779    -0.54600
C359        C  0.88478700  0.43304631  0.61446028     0.09400
C360        C  0.82431324  0.43932761  0.65080021    -0.54200
C361        C  0.84757044  0.46770682  0.65690038     0.09900
H362        H  0.80389535  0.45892790  0.56514743     0.14400
H363        H  0.88948394  0.49809466  0.62871571     0.00200
H364        H  0.86765234  0.37377042  0.60131567     0.14800
H365        H  0.80722052  0.42993951  0.67229891     0.14500
C366        C  0.01695571  0.79129090  0.51659081     0.86300
C367        C  0.00097549  0.82811327  0.49763775    -0.53900
C368        C  0.96956220  0.82222037  0.48528196     0.09300
C369        C  0.95682651  0.77992914  0.49337083     0.20200
C370        C  0.99268702  0.77942102  0.54736446    -0.54600
C371        C  0.96088137  0.77572273  0.53554495     0.09400
C372        C  0.01362780  0.75708450  0.48831358    -0.54200
C373        C  0.98215773  0.75161452  0.47591630     0.09900
H374        H  0.01360833  0.85672002  0.49512515     0.14400
H375        H  0.93175951  0.77347106  0.48295197     0.00200
H376        H  0.99895760  0.77534041  0.57620569     0.14800
H377        H  0.03429115  0.73955083  0.47817752     0.14500
In378      In  0.15224713  0.49656952  0.04212383     1.36900
C379        C  0.13172891  0.57144329  0.03435521     0.77400
O380        O  0.14627871  0.43437772  0.01961599    -0.61000
O381        O  0.10383508  0.47128845  0.02553153    -0.51900
C382        C  0.20368161  0.50423479  0.99731459     0.70100
O383        O  0.17446075  0.50081520  0.98624334    -0.46800
C384        C  0.14939081  0.47740675  0.11389232     0.74800
O385        O  0.14940046  0.56126215  0.06157675    -0.58600
O386        O  0.17545407  0.47305212  0.09501704    -0.48700
O387        O  0.12567485  0.54385545  0.01165831    -0.55100
C388        C  0.11561816  0.43834824  0.01476295     0.85000
O389        O  0.20720698  0.50167907  0.03212774    -0.57000
O390        O  0.12527460  0.49088255  0.09571743    -0.60300
C391        C  0.79167067  0.81485144  0.64597123     0.86300
C392        C  0.80549969  0.82624484  0.68442378    -0.53900
C393        C  0.83404006  0.80673278  0.69419547     0.09300
C394        C  0.84546837  0.77631814  0.66454157     0.20200
C395        C  0.82069075  0.82100659  0.61913324    -0.54600
C396        C  0.84865417  0.80115376  0.62915655     0.09400
C397        C  0.78810110  0.76852156  0.64674379    -0.54200
C398        C  0.81649168  0.74765367  0.65519075     0.09900
H399        H  0.79431694  0.84928201  0.70154668     0.14400
H400        H  0.86867242  0.76099600  0.67249125     0.00200
H401        H  0.81878642  0.83767079  0.59333820     0.14800
H402        H  0.76715060  0.75385654  0.63417183     0.14500
C403        C  0.83553961  0.59649346  0.57261245     0.86300
C404        C  0.80473841  0.58622583  0.54901237    -0.53900
C405        C  0.80809123  0.55296817  0.52682340     0.09300
C406        C  0.84177774  0.53251659  0.53087758     0.20200
C407        C  0.84310296  0.55825320  0.59426504    -0.54600
C408        C  0.84585794  0.52461773  0.57303382     0.09400
C409        C  0.86305822  0.59940643  0.54324877    -0.54200
C410        C  0.86581900  0.56667312  0.52029288     0.09900
H411        H  0.78302810  0.60520995  0.54797892     0.14400
H412        H  0.84488853  0.50528952  0.51365493     0.00200
H413        H  0.84410227  0.55746610  0.62433998     0.14800
H414        H  0.87698933  0.62667534  0.53868459     0.14500
C415        C  0.97856357  0.57635237  0.33341833     0.86300
C416        C  0.98491249  0.61939409  0.34682934    -0.53900
C417        C  0.95766925  0.64039033  0.35705638     0.09300
C418        C  0.92552465  0.61732529  0.34986829     0.20200
C419        C  0.95758780  0.55796619  0.36537529    -0.54600
C420        C  0.92972054  0.57952350  0.37445595     0.09400
C421        C  0.95440947  0.58105858  0.30096569    -0.54200
C422        C  0.92684962  0.60294064  0.30905036     0.09900
H423        H  0.00956344  0.62992477  0.35364023     0.14400
H424        H  0.90311048  0.63538788  0.35531912     0.00200
H425        H  0.96603581  0.53396692  0.38295697     0.14800
H426        H  0.95946091  0.56960702  0.27338688     0.14500
C427        C  0.17516053  0.54384673  0.31195292     0.86300
C428        C  0.13910228  0.55862572  0.31562662    -0.53900
C429        C  0.11583583  0.52917273  0.31063581     0.09300
C430        C  0.13071835  0.48734448  0.30318411     0.20200
C431        C  0.17746061  0.50937610  0.34069656    -0.54600
C432        C  0.15450240  0.47953425  0.33600554     0.09400
C433        C  0.17614957  0.52272976  0.27440969    -0.54200
C434        C  0.15325780  0.49346786  0.26945557     0.09900
H435        H  0.13212103  0.58898537  0.32295261     0.14400
H436        H  0.11202543  0.46341107  0.29899355     0.00200
H437        H  0.19691221  0.50742089  0.36117383     0.14800
H438        H  0.19298762  0.53169330  0.25251422     0.14500
C439        C  0.02148500  0.65946199  0.00600216     0.86300
C440        C  0.01487561  0.69920617  0.98620503    -0.53900
C441        C  0.98306521  0.70386116  0.97473394     0.09300
C442        C  0.96035348  0.66891548  0.98532273     0.20200
C443        C  0.99646218  0.65765302  0.03800297    -0.54600
C444        C  0.96429096  0.66184971  0.02733440     0.09400
C445        C  0.00877353  0.62691072  0.97898415    -0.54200
C446        C  0.97666669  0.63175634  0.96834288     0.09900
H447        H  0.03433346  0.72001793  0.97861742     0.14400
H448        H  0.93471380  0.67433925  0.97608797     0.00200
H449        H  0.00287762  0.64877019  0.06583877     0.14800
H450        H  0.02366326  0.60156886  0.97016324     0.14500
In451      In  0.14331044  0.97113802  0.53651467     1.36900
C452        C  0.12093067  0.89639635  0.53486741     0.77400
O453        O  0.17062537  0.98829599  0.58850091    -0.61000
O454        O  0.11826614  0.98857260  0.58904381    -0.51900
C455        C  0.19477662  0.96399040  0.49160447     0.70100
O456        O  0.16542394  0.96507118  0.48046738    -0.46800
C457        C  0.10677226  0.02897622  0.50897580     0.74800
O458        O  0.11830702  0.92033302  0.50816506    -0.58600
O459        O  0.09495288  0.99605479  0.51978029    -0.48700
O460        O  0.13611780  0.91011726  0.56250970    -0.55100
C461        C  0.14455215  0.99321013  0.60717892     0.85000
O462        O  0.19808828  0.96783074  0.52627821    -0.57000
O463        O  0.13742273  0.03300275  0.51367097    -0.60300
C464        C  0.79409619  0.63375992  0.14169290     0.86300
C465        C  0.79252947  0.67992341  0.13677610    -0.53900
C466        C  0.82150937  0.69972022  0.14380546     0.09300
C467        C  0.84928207  0.67121373  0.15680242     0.20200
C468        C  0.82353599  0.62180397  0.11678485    -0.54600
C469        C  0.85256270  0.64103509  0.12475733     0.09400
C470        C  0.80702078  0.62673036  0.18133617    -0.54200
C471        C  0.83613340  0.64577353  0.18929662     0.09900
H472        H  0.77185322  0.69500375  0.12372418     0.14400
H473        H  0.87197016  0.68786766  0.16405783     0.00200
H474        H  0.82125402  0.60077569  0.09403038     0.14800
H475        H  0.79544413  0.60588793  0.20043519     0.14500
C476        C  0.83785894  0.85529252  0.06758660     0.86300
C477        C  0.84517914  0.89257488  0.09127139    -0.53900
C478        C  0.84587941  0.92781805  0.07186679     0.09300
C479        C  0.83991828  0.92256692  0.02994149     0.20200
C480        C  0.80567977  0.86560881  0.04668367    -0.54600
C481        C  0.80665955  0.90081583  0.02696246     0.09400
C482        C  0.86404126  0.85603755  0.03640085    -0.54200
C483        C  0.86497988  0.89099443  0.01660289     0.09900
H484        H  0.84753243  0.89141485  0.12123537     0.14400
H485        H  0.84120465  0.95143580  0.01470716     0.00200
H486        H  0.78446812  0.84577161  0.04628840     0.14800
H487        H  0.87797818  0.83008114  0.02736399     0.14500
C488        C  0.97904694  0.88333136  0.83283714     0.86300
C489        C  0.95789355  0.90510071  0.86252189    -0.53900
C490        C  0.93047174  0.88407119  0.87374024     0.09300
C491        C  0.92584943  0.84406642  0.85267940     0.20200
C492        C  0.98538565  0.84208025  0.85077810    -0.54600
C493        C  0.95790080  0.82155906  0.86139266     0.09400
C494        C  0.95490066  0.87485201  0.80081504    -0.54200
C495        C  0.92712349  0.85425200  0.81083333     0.09900
H496        H  0.96510877  0.93236477  0.87641929     0.14400
H497        H  0.90359097  0.82678319  0.86060072     0.00200
H498        H  0.01005846  0.83188353  0.85782738     0.14800
H499        H  0.95979637  0.88359102  0.77237785     0.14500
C500        C  0.17575541  0.92357168  0.80402477     0.86300
C501        C  0.17654206  0.95780249  0.83301583    -0.53900
C502        C  0.15221060  0.98608361  0.82857604     0.09300
C503        C  0.12868955  0.97704647  0.79590794     0.20200
C504        C  0.14038532  0.90629414  0.80764622    -0.54600
C505        C  0.11556366  0.93422614  0.80340240     0.09400
C506        C  0.17556514  0.94501201  0.76667130    -0.54200
C507        C  0.15139464  0.97274839  0.76199196     0.09900
H508        H  0.19602829  0.96097642  0.85331884     0.14400
H509        H  0.10915221  0.00003218  0.79201850     0.00200
H510        H  0.13521222  0.87526579  0.81449495     0.14800
H511        H  0.19280967  0.93746390  0.74472201     0.14500
C512        C  0.98860507  0.28998409  0.90854892     0.86300
C513        C  0.00486933  0.32678029  0.92699757    -0.53900
C514        C  0.03631433  0.32054077  0.93901810     0.09300
C515        C  0.04882889  0.27808052  0.93153645     0.20200
C516        C  0.01266382  0.27734356  0.87771820    -0.54600
C517        C  0.04464418  0.27290497  0.88928320     0.09400
C518        C  0.99192165  0.25601289  0.93706278    -0.54200
C519        C  0.02334626  0.25018884  0.94941495     0.09900
H520        H  0.99243479  0.35550013  0.92987076     0.14400
H521        H  0.07381850  0.27275156  0.94264425     0.00200
H522        H  0.00571986  0.27275471  0.84913158     0.14800
H523        H  0.97125090  0.23847661  0.94715219     0.14500
In524      In  0.85306119  0.99946092  0.38346032     1.36900
C525        C  0.87219749  0.07486505  0.38562700     0.77400
O526        O  0.90209468  0.97596749  0.40099507    -0.61000
O527        O  0.86042568  0.93788602  0.40624347    -0.51900
C528        C  0.80234491  0.00719544  0.42931211     0.70100
O529        O  0.83195723  0.01010397  0.43907996    -0.46800
C530        C  0.85443573  0.97864274  0.31260806     0.74800
O531        O  0.85326799  0.06263632  0.36026977    -0.58600
O532        O  0.87884315  0.99311298  0.32955145    -0.48700
O533        O  0.88003973  0.04898523  0.40942571    -0.55100
C534        C  0.89092131  0.94264204  0.41147113     0.85000
O535        O  0.79823624  0.99911163  0.39534262    -0.57000
O536        O  0.82890180  0.97427010  0.33231061    -0.60300
C537        C  0.21301441  0.31820877  0.77727064     0.86300
C538        C  0.19775053  0.32919180  0.73935429    -0.53900
C539        C  0.17012618  0.30769864  0.73002442     0.09300
C540        C  0.16057515  0.27630502  0.75962806     0.20200
C541        C  0.18402069  0.32231261  0.80486241    -0.54600
C542        C  0.15669191  0.30067362  0.79517055     0.09400
C543        C  0.21846767  0.27214698  0.77632544    -0.54200
C544        C  0.19082224  0.24983114  0.76857400     0.09900
H545        H  0.20668984  0.35398419  0.72261464     0.14400
H546        H  0.13827558  0.25867114  0.75221408     0.00200
H547        H  0.18543342  0.33905153  0.83061575     0.14800
H548        H  0.23990520  0.25814774  0.78885068     0.14500
C549        C  0.16419041  0.09827266  0.84914738     0.86300
C550        C  0.19489077  0.08646774  0.87203897    -0.53900
C551        C  0.19100449  0.05324147  0.89387513     0.09300
C552        C  0.15730641  0.03301161  0.88944702     0.20200
C553        C  0.15640280  0.06018974  0.82661835    -0.54600
C554        C  0.15329813  0.02606011  0.84723628     0.09400
C555        C  0.13637349  0.10060574  0.87826096    -0.54200
C556        C  0.13300803  0.06688720  0.90021004     0.09900
H557        H  0.21733090  0.10420523  0.87243912     0.14400
H558        H  0.15476738  0.00533452  0.90633509     0.00200
H559        H  0.15611303  0.05880317  0.79667793     0.14800
H560        H  0.12261550  0.12806535  0.88317682     0.14500
C561        C  0.02142875  0.07059962  0.08915578     0.86300
C562        C  0.01515969  0.11374677  0.07580409    -0.53900
C563        C  0.04255746  0.13520506  0.06681392     0.09300
C564        C  0.07466905  0.11216692  0.07449100     0.20200
C565        C  0.04328132  0.05284960  0.05743457    -0.54600
C566        C  0.07103045  0.07518894  0.04856349     0.09400
C567        C  0.04501242  0.07536969  0.12230336    -0.54200
C568        C  0.07273469  0.09761675  0.11533420     0.09900
H569        H  0.99062301  0.12419057  0.06835232     0.14400
H570        H  0.09690657  0.13071683  0.07082161     0.00200
H571        H  0.03518361  0.02860561  0.03989633     0.14800
H572        H  0.03937679  0.06332488  0.14949767     0.14500
C573        C  0.82343990  0.03150342  0.11286417     0.86300
C574        C  0.85908959  0.04804573  0.10928000    -0.53900
C575        C  0.88357797  0.01977044  0.11434457     0.09300
C576        C  0.86990429  0.97753327  0.12330297     0.20200
C577        C  0.82276304  0.99623207  0.08480944    -0.54600
C578        C  0.84645702  0.96753653  0.09090947     0.09400
C579        C  0.82289681  0.01128478  0.15072335    -0.54200
C580        C  0.84689850  0.98366121  0.15668001     0.09900
H581        H  0.86442681  0.07916418  0.10265964     0.14400
H582        H  0.88929765  0.95457080  0.12820244     0.00200
H583        H  0.80498471  0.99311361  0.06259004     0.14800
H584        H  0.80576203  0.02019914  0.17235439     0.14500
C585        C  0.94073524  0.00522076  0.08897243    -0.21500
C586        C  0.91983845  0.02897779  0.11106517    -0.09500
C587        C  0.93382303  0.06186196  0.12963906     0.29400
C588        C  0.96704389  0.07222902  0.12423677    -0.21500
C589        C  0.98758761  0.05110998  0.09925274    -0.09500
C590        C  0.97406203  0.01591651  0.08296350     0.29400
F591        F  0.99236224  0.99139770  0.06131346    -0.20000
H592        H  0.93091316  0.97888798  0.07522902     0.17700
H593        H  0.97642905  0.09855008  0.13836512     0.17700
F594        F  0.91528306  0.08420912  0.15312533    -0.20000
C595        C  0.11840827  0.10302052  0.95901349    -0.21500
C596        C  0.11612430  0.06816233  0.93744165    -0.09500
C597        C  0.10012706  0.03466761  0.95313557     0.29400
C598        C  0.08658575  0.03661219  0.98921951    -0.21500
C599        C  0.08835818  0.07203900  0.01091994    -0.09500
C600        C  0.10494020  0.10525717  0.99462058     0.29400
F601        F  0.10798471  0.14110451  0.01179631    -0.20000
H602        H  0.13130158  0.12909555  0.94848511     0.17700
H603        H  0.07466197  0.01004074  0.99997359     0.17700
F604        F  0.09685186  0.00024563  0.93335834    -0.20000
C605        C  0.16417786  0.14142086  0.78843934    -0.21500
C606        C  0.16982788  0.13778965  0.82711253    -0.09500
C607        C  0.18251117  0.17192397  0.84552430     0.29400
C608        C  0.19142129  0.20658445  0.82582617    -0.21500
C609        C  0.18574303  0.21001819  0.78750580    -0.09500
C610        C  0.17158956  0.17713285  0.76910186     0.29400
F611        F  0.16520923  0.17935900  0.73223813    -0.20000
H612        H  0.15339383  0.11730753  0.77266521     0.17700
H613        H  0.20192519  0.23153714  0.84096501     0.17700
F614        F  0.18667777  0.17177048  0.88285312    -0.20000
C615        C  0.88200007  0.97792907  0.21251655    -0.21500
C616        C  0.85237973  0.96851865  0.19463024    -0.09500
C617        C  0.82538160  0.95531290  0.21579883     0.29400
C618        C  0.82691899  0.95601066  0.25443890    -0.21500
C619        C  0.85539529  0.96973333  0.27249255    -0.09500
C620        C  0.88359565  0.97867221  0.25120815     0.29400
F621        F  0.91192711  0.99124563  0.26752460    -0.20000
H622        H  0.90289977  0.98856096  0.19668191     0.17700
H623        H  0.80510903  0.94830921  0.27012172     0.17700
F624        F  0.79651295  0.94537934  0.19908204    -0.20000
C625        C  0.02083048  0.18076256  0.97391957    -0.21500
C626        C  0.03146647  0.22039692  0.97831856    -0.09500
C627        C  0.04796346  0.23159063  0.01107949     0.29400
C628        C  0.05218320  0.20365544  0.03981229    -0.21500
C629        C  0.04007243  0.16448429  0.03598944    -0.09500
C630        C  0.02530037  0.15290369  0.00222909     0.29400
F631        F  0.01497468  0.11460064  0.99664088    -0.20000
H632        H  0.00868781  0.17149999  0.94856342     0.17700
H633        H  0.06406329  0.21281284  0.06534177     0.17700
F634        F  0.05843014  0.26991478  0.01604089    -0.20000
C635        C  0.06929160  0.29618766  0.82916722    -0.21500
C636        C  0.07292702  0.27549808  0.86310436    -0.09500
C637        C  0.10463922  0.26258414  0.87365111     0.29400
C638        C  0.13203137  0.27366909  0.85277940    -0.21500
C639        C  0.12816581  0.29456871  0.81941568    -0.09500
C640        C  0.09656098  0.30459144  0.80705411     0.29400
F641        F  0.09219389  0.32344911  0.77404724    -0.20000
H642        H  0.04556937  0.30713372  0.81996694     0.17700
H643        H  0.15623710  0.26499809  0.86231148     0.17700
F644        F  0.10942049  0.23902297  0.90384589    -0.20000
C645        C  0.03361806  0.87761434  0.79895543    -0.21500
C646        C  0.01234290  0.90187876  0.82035807    -0.09500
C647        C  0.02449297  0.94005505  0.83122095     0.29400
C648        C  0.05763354  0.95069614  0.82475611    -0.21500
C649        C  0.07950176  0.92426751  0.80686262    -0.09500
C650        C  0.06657968  0.88824018  0.79263585     0.29400
F651        F  0.08578081  0.86307867  0.77247812    -0.20000
H652        H  0.02503129  0.84894751  0.78853865     0.17700
H653        H  0.06642620  0.97940194  0.83483620     0.17700
F654        F  0.00484024  0.96782117  0.84735111    -0.20000
C655        C  0.91379489  0.90570226  0.97629818    -0.21500
C656        C  0.88111479  0.89284439  0.97969633    -0.09500
C657        C  0.86445373  0.87907668  0.94797094     0.29400
C658        C  0.87979679  0.87973980  0.91326266    -0.21500
C659        C  0.91283963  0.89172225  0.90959802    -0.09500
C660        C  0.92980443  0.90451352  0.94184272     0.29400
F661        F  0.96247961  0.91295047  0.94094734    -0.20000
H662        H  0.92734953  0.91511053  0.00065618     0.17700
H663        H  0.86614524  0.86916428  0.88941618     0.17700
F664        F  0.83362888  0.86359391  0.95072060    -0.20000
C665        C  0.80390578  0.77171162  0.13183173    -0.21500
C666        C  0.82781321  0.74130637  0.12872840    -0.09500
C667        C  0.85656712  0.75019390  0.10837468     0.29400
C668        C  0.86015036  0.78683274  0.08983125    -0.21500
C669        C  0.83531840  0.81632271  0.09066672    -0.09500
C670        C  0.80784705  0.80894327  0.11380682     0.29400
F671        F  0.78421875  0.83736615  0.11826471    -0.20000
H672        H  0.78185167  0.76645991  0.14795479     0.17700
H673        H  0.88284600  0.79158075  0.07497300     0.17700
F674        F  0.88108258  0.72312493  0.10460159    -0.20000
C675        C  0.11548825  0.99255988  0.66795166    -0.21500
C676        C  0.14441198  0.00017321  0.64765839    -0.09500
C677        C  0.17367264  0.00862864  0.66695926     0.29400
C678        C  0.17469610  0.00478806  0.70549547    -0.21500
C679        C  0.14677432  0.99191720  0.72526856    -0.09500
C680        C  0.11662490  0.98825924  0.70650968     0.29400
F681        F  0.08921951  0.97574307  0.72461094    -0.20000
H682        H  0.09251690  0.98638959  0.65375967     0.17700
H683        H  0.19809373  0.00837911  0.71959842     0.17700
F684        F  0.20182862  0.01764988  0.64851952    -0.20000
C685        C  0.99223955  0.73145806  0.91179577    -0.21500
C686        C  0.97427090  0.73228756  0.94490835    -0.09500
C687        C  0.94761884  0.75887668  0.94835501     0.29400
C688        C  0.94087908  0.78642972  0.91997026    -0.21500
C689        C  0.96030025  0.78732815  0.88769091    -0.09500
C690        C  0.98518926  0.75836631  0.88329788     0.29400
F691        F  0.00309396  0.75661121  0.85163400    -0.20000
H692        H  0.01202042  0.70985213  0.90808197     0.17700
H693        H  0.92135682  0.80834736  0.92413326     0.17700
F694        F  0.92922653  0.75935876  0.97972617    -0.20000
C695        C  0.93994396  0.65670283  0.09134595    -0.21500
C696        C  0.93630493  0.65219322  0.05276045    -0.09500
C697        C  0.90623304  0.63668158  0.03926783     0.29400
C698        C  0.87960208  0.63109774  0.06304202    -0.21500
C699        C  0.88264895  0.63827605  0.10122607    -0.09500
C700        C  0.91395515  0.64824706  0.11540307     0.29400
F701        F  0.91947007  0.65099702  0.15240221    -0.20000
H702        H  0.96273358  0.66747258  0.10328318     0.17700
H703        H  0.85628109  0.62249975  0.05092199     0.17700
F704        F  0.90214391  0.62611744  0.00332721    -0.20000
C705        C  0.87121648  0.66448392  0.24462799    -0.21500
C706        C  0.85744098  0.63468160  0.22177380    -0.09500
C707        C  0.86643391  0.59435108  0.22819202     0.29400
C708        C  0.88852992  0.58427355  0.25676912    -0.21500
C709        C  0.90191887  0.61396977  0.28001561    -0.09500
C710        C  0.89286922  0.65428537  0.27374108     0.29400
F711        F  0.90619289  0.68404967  0.29460063    -0.20000
H712        H  0.86533199  0.69575555  0.23975936     0.17700
H713        H  0.89541424  0.55312915  0.26060921     0.17700
F714        F  0.85508124  0.56477004  0.20568367    -0.20000
C715        C  0.03201425  0.57852527  0.29750854    -0.21500
C716        C  0.01194835  0.55718240  0.32272501    -0.09500
C717        C  0.02572531  0.52240579  0.33937614     0.29400
C718        C  0.05916252  0.51280200  0.33424418    -0.21500
C719        C  0.07964589  0.53705878  0.31241339    -0.09500
C720        C  0.06537960  0.56909364  0.29279041     0.29400
F721        F  0.08378167  0.59162785  0.26929102    -0.20000
H722        H  0.02222295  0.60447229  0.28305899     0.17700
H723        H  0.06938773  0.48700149  0.34853911     0.17700
F724        F  0.00765324  0.49726593  0.36060000    -0.20000
C725        C  0.89760288  0.60824620  0.42808343    -0.21500
C726        C  0.91166805  0.57444245  0.41084472    -0.09500
C727        C  0.90948719  0.53730495  0.42977851     0.29400
C728        C  0.89517384  0.53499759  0.46533696    -0.21500
C729        C  0.88204176  0.56928902  0.48276231    -0.09500
C730        C  0.88249576  0.60573619  0.46273674     0.29400
F731        F  0.86722140  0.63915518  0.47564957    -0.20000
H732        H  0.89843233  0.63752312  0.41528304     0.17700
H733        H  0.89448491  0.50621170  0.47927437     0.17700
F734        F  0.92050806  0.50295213  0.41386374    -0.20000
C735        C  0.87410161  0.78977265  0.74615438    -0.21500
C736        C  0.85563606  0.81879277  0.72657251    -0.09500
C737        C  0.86045841  0.85958422  0.73602976     0.29400
C738        C  0.88313525  0.87069314  0.76377258    -0.21500
C739        C  0.90147655  0.84167987  0.78314687    -0.09500
C740        C  0.89657339  0.80098103  0.77419843     0.29400
F741        F  0.91464363  0.77214552  0.79141322    -0.20000
H742        H  0.87138961  0.75826203  0.73949049     0.17700
H743        H  0.88679003  0.90223214  0.76977503     0.17700
F744        F  0.84473346  0.88912496  0.71706598    -0.20000
C745        C  0.85368330  0.69316075  0.62881623    -0.21500
C746        C  0.82207036  0.70542754  0.64051839    -0.09500
C747        C  0.79586877  0.67824492  0.63453515     0.29400
C748        C  0.80055214  0.64313262  0.61354230    -0.21500
C749        C  0.83145102  0.63354160  0.59797657    -0.09500
C750        C  0.85846804  0.65763400  0.60864033     0.29400
F751        F  0.88978545  0.64714936  0.59982972    -0.20000
H752        H  0.87512061  0.71152731  0.63381157     0.17700
H753        H  0.77965472  0.62347082  0.60942624     0.17700
F754        F  0.76561044  0.68516653  0.64909083    -0.20000
C755        C  0.04185900  0.37864141  0.98248467    -0.21500
C756        C  0.05657052  0.35157949  0.95769447    -0.09500
C757        C  0.09084566  0.35365195  0.95185381     0.29400
C758        C  0.10998410  0.38104217  0.97155931    -0.21500
C759        C  0.09527783  0.40779636  0.99642530    -0.09500
C760        C  0.06095376  0.40682247  0.00144402     0.29400
F761        F  0.04590871  0.43265989  0.02506676    -0.20000
H762        H  0.01560928  0.37761999  0.98767050     0.17700
H763        H  0.13625459  0.38222460  0.96642518     0.17700
F764        F  0.10590017  0.33053566  0.92606379    -0.20000
C765        C  0.06847029  0.64716094  0.05280304    -0.21500
C766        C  0.05765448  0.65288942  0.01595287    -0.09500
C767        C  0.08050198  0.64625789  0.98724123     0.29400
C768        C  0.10910998  0.62440220  0.99439024    -0.21500
C769        C  0.11569291  0.61053923  0.03031025    -0.09500
C770        C  0.09740503  0.62577823  0.05997058     0.29400
F771        F  0.10442087  0.61463528  0.09530819    -0.20000
H772        H  0.05380243  0.65602453  0.07624828     0.17700
H773        H  0.12379006  0.61399992  0.97126744     0.17700
F774        F  0.07291102  0.65551873  0.95159181    -0.20000
C775        C  0.17600271  0.45910429  0.17417034    -0.21500
C776        C  0.14754375  0.47002992  0.15443774    -0.09500
C777        C  0.11844525  0.47838138  0.17445689     0.29400
C778        C  0.11927027  0.48108242  0.21319718    -0.21500
C779        C  0.14890708  0.47517257  0.23238560    -0.09500
C780        C  0.17665991  0.46141994  0.21285096     0.29400
F781        F  0.20528971  0.45376807  0.23105381    -0.20000
H782        H  0.19845349  0.45146453  0.15961369     0.17700
H783        H  0.09758393  0.49152143  0.22778916     0.17700
F784        F  0.08983031  0.48705840  0.15662845    -0.20000
C785        C  0.98347750  0.68279372  0.44973043    -0.21500
C786        C  0.97350290  0.72279916  0.44647796    -0.09500
C787        C  0.95592816  0.73522527  0.41477631     0.29400
C788        C  0.94978390  0.70808255  0.38594379    -0.21500
C789        C  0.96106036  0.66847343  0.38859425    -0.09500
C790        C  0.97705087  0.65568473  0.42130822     0.29400
F791        F  0.98687690  0.61697101  0.42559669    -0.20000
H792        H  0.99639713  0.67260681  0.47429628     0.17700
H793        H  0.93722492  0.71824406  0.36114179     0.17700
F794        F  0.94621018  0.77400205  0.41087415    -0.20000
C795        C  0.07424666  0.80899806  0.49789971    -0.21500
C796        C  0.05214996  0.80232563  0.52740277    -0.09500
C797        C  0.05996916  0.81948611  0.56234305     0.29400
C798        C  0.08635685  0.84602650  0.56578279    -0.21500
C799        C  0.10432228  0.85742344  0.53458881    -0.09500
C800        C  0.09957698  0.83697962  0.50113905     0.29400
F801        F  0.11700061  0.84727512  0.47050806    -0.20000
H802        H  0.06913202  0.79708851  0.47058977     0.17700
H803        H  0.08983491  0.86167271  0.59182328     0.17700
F804        F  0.04037731  0.81543783  0.59237380    -0.20000
C805        C  0.96483793  0.88438689  0.44615120    -0.21500
C806        C  0.94949017  0.85379352  0.46678279    -0.09500
C807        C  0.91482266  0.85369879  0.46937812     0.29400
C808        C  0.89620241  0.88193350  0.45020407    -0.21500
C809        C  0.91150319  0.91216101  0.42961499    -0.09500
C810        C  0.94608784  0.91385954  0.42836364     0.29400
F811        F  0.96180055  0.94371224  0.40984138    -0.20000
H812        H  0.99135801  0.88551934  0.44344797     0.17700
H813        H  0.86961426  0.88095988  0.45262257     0.17700
F814        F  0.89852115  0.82791478  0.49182879    -0.20000
C815        C  0.90235785  0.76282067  0.55235283    -0.21500
C816        C  0.93262651  0.78085805  0.56099183    -0.09500
C817        C  0.93446054  0.80748365  0.59146945     0.29400
C818        C  0.90685928  0.81425579  0.61348886    -0.21500
C819        C  0.87684937  0.79638466  0.60443022    -0.09500
C820        C  0.87448758  0.77106964  0.57351739     0.29400
F821        F  0.84537028  0.75360739  0.56439913    -0.20000
H822        H  0.90016772  0.74262659  0.52898956     0.17700
H823        H  0.90871764  0.83396198  0.63727052     0.17700
F824        F  0.96229720  0.82850532  0.59912943    -0.20000
C825        C  0.10905919  0.36987451  0.67251510    -0.21500
C826        C  0.10003044  0.34349666  0.64368195    -0.09500
C827        C  0.11473115  0.30498184  0.64340718     0.29400
C828        C  0.13753853  0.29351799  0.67118065    -0.21500
C829        C  0.14686847  0.32029582  0.69947623    -0.09500
C830        C  0.13213259  0.35863224  0.69983236     0.29400
F831        F  0.13912091  0.38486018  0.72752624    -0.20000
H832        H  0.09821523  0.39953877  0.67394345     0.17700
H833        H  0.14790010  0.26355156  0.67064152     0.17700
F834        F  0.10604817  0.27765535  0.61729621    -0.20000
C835        C  0.93501907  0.39351309  0.63278788    -0.21500
C836        C  0.92092635  0.42473493  0.61205621    -0.09500
C837        C  0.94142203  0.44735792  0.58867044     0.29400
C838        C  0.97490630  0.43730270  0.58446034    -0.21500
C839        C  0.98896057  0.40438657  0.60363715    -0.09500
C840        C  0.96851440  0.38377164  0.62912117     0.29400
F841        F  0.98038661  0.35208433  0.64870948    -0.20000
H842        H  0.91984875  0.37609760  0.65148641     0.17700
H843        H  0.98886585  0.45441151  0.56463513     0.17700
F844        F  0.92857784  0.47758731  0.56790921    -0.20000
C845        C  0.07211423  0.40696073  0.48460488    -0.21500
C846        C  0.08952978  0.39456991  0.51656217    -0.09500
C847        C  0.12342385  0.38622233  0.51286254     0.29400
C848        C  0.13898715  0.38905329  0.47811544    -0.21500
C849        C  0.12124432  0.40004767  0.44614292    -0.09500
C850        C  0.08769981  0.40956351  0.44985396     0.29400
F851        F  0.06980957  0.42054816  0.41970860    -0.20000
H852        H  0.04592951  0.41295733  0.48610618     0.17700
H853        H  0.16492594  0.38177872  0.47601013     0.17700
F854        F  0.14156664  0.37514686  0.54279866    -0.20000
C855        C  0.10653403  0.13994992  0.20725104    -0.21500
C856        C  0.14082647  0.14193039  0.20144921    -0.09500
C857        C  0.15265520  0.12820964  0.16683938     0.29400
C858        C  0.13070650  0.11391344  0.13918582    -0.25500
C859        C  0.09643036  0.11146185  0.14547483    -0.09500
C860        C  0.08482618  0.12446266  0.18032080     0.29400
F861        F  0.05216206  0.12362613  0.18820621    -0.20000
H862        H  0.09616950  0.15021617  0.23306443     0.17700
H863        H  0.14065365  0.10432925  0.11281560     0.17700
F864        F  0.18534883  0.12953820  0.15921834    -0.20000
C865        C  0.14531252  0.27201370  0.29907423    -0.21500
C866        C  0.17647186  0.25904067  0.28645824    -0.09500
C867        C  0.20320321  0.28548888  0.29234717     0.29400
C868        C  0.19959847  0.32010750  0.31439206    -0.21500
C869        C  0.16934769  0.32985504  0.33153332    -0.09500
C870        C  0.14170111  0.30672038  0.32102574     0.29400
F871        F  0.11094363  0.31733241  0.33190476    -0.20000
H872        H  0.12348502  0.25446757  0.29365786     0.17700
H873        H  0.22086124  0.33929760  0.31802299     0.17700
F874        F  0.23294096  0.27832939  0.27655440    -0.20000
C875        C  0.91627208  0.34026966  0.85867230    -0.21500
C876        C  0.89610265  0.34856745  0.88910633    -0.09500
C877        C  0.90224878  0.32904168  0.92280196     0.29400
C878        C  0.93030235  0.30523073  0.92697181    -0.21500
C879        C  0.95320039  0.30070067  0.89786802    -0.09500
C880        C  0.94494517  0.31751259  0.86294231     0.29400
F881        F  0.96582217  0.31663857  0.83376644    -0.20000
H882        H  0.91207342  0.35541166  0.83250126     0.17700
H883        H  0.93581667  0.29397686  0.95443400     0.17700
F884        F  0.88287102  0.33597182  0.95273304    -0.20000
C885        C  0.93816739  0.53197344  0.94400743    -0.21500
C886        C  0.91190593  0.54402757  0.92125050    -0.09500
C887        C  0.90919229  0.58456982  0.91086318     0.29400
C888        C  0.93182570  0.61267641  0.92433923    -0.21500
C889        C  0.95719710  0.60085816  0.94857586    -0.09500
C890        C  0.96048735  0.55999480  0.95781299     0.29400
F891        F  0.98374668  0.54728836  0.98221283    -0.20000
H892        H  0.94079289  0.50085336  0.95226874     0.17700
H893        H  0.92900168  0.64392446  0.91660479     0.17700
F894        F  0.88478395  0.59703298  0.88779425    -0.20000
C895        C  0.82368132  0.49853966  0.71346329    -0.21500
C896        C  0.85160017  0.48409045  0.69463259    -0.09500
C897        C  0.88014786  0.47501459  0.71483891     0.29400
C898        C  0.87963796  0.47661902  0.75349973    -0.21500
C899        C  0.85058907  0.48686329  0.77256675    -0.09500
C900        C  0.82308232  0.49992981  0.75218888     0.29400
F901        F  0.79505515  0.51166355  0.76954659    -0.20000
H902        H  0.80139117  0.50556645  0.69819464     0.17700
H903        H  0.90129120  0.46669569  0.76852769     0.17700
F904        F  0.90714634  0.45991861  0.69762918    -0.20000
C905        C  0.00523595  0.23827584  0.51052753    -0.21500
C906        C  0.02213466  0.24170965  0.47684636    -0.09500
C907        C  0.04876420  0.26833772  0.47405769     0.29400
C908        C  0.05730225  0.29267397  0.50407808    -0.21500
C909        C  0.03928821  0.29093574  0.53722358    -0.09500
C910        C  0.01375027  0.26254788  0.54056244     0.29400
F911        F  0.99639669  0.25916053  0.57252727    -0.20000
H912        H  0.98530486  0.21688794  0.51347558     0.17700
H913        H  0.07680589  0.31440312  0.50052452     0.17700
F914        F  0.06531633  0.27243112  0.44167034    -0.20000
C915        C  0.93117786  0.15475735  0.36119996    -0.21500
C916        C  0.94138074  0.16545354  0.39729490    -0.09500
C917        C  0.92037716  0.15598205  0.42723798     0.29400
C918        C  0.89342964  0.13098716  0.42188063    -0.21500
C919        C  0.88701980  0.11478091  0.38693199    -0.09500
C920        C  0.90406719  0.12940390  0.35604340     0.29400
F921        F  0.89795181  0.11425017  0.32179634    -0.20000
H922        H  0.94583301  0.16172551  0.33715412     0.17700
H923        H  0.88026910  0.12000104  0.44595718     0.17700
F924        F  0.92889797  0.16504111  0.46265513    -0.20000
C925        C  0.05230706  0.06038480  0.49845233    -0.21500
C926        C  0.08622430  0.05952832  0.49122669    -0.09500
C927        C  0.09973988  0.08628977  0.46538983     0.29400
C928        C  0.07936597  0.11324115  0.44677086    -0.21500
C929        C  0.04546235  0.11466369  0.45440791    -0.09500
C930        C  0.03203706  0.08801958  0.48052682     0.29400
F931        F  0.99966282  0.08950536  0.48974697    -0.20000
H932        H  0.04155093  0.03994809  0.51839452     0.17700
H933        H  0.09018705  0.13280438  0.42616292     0.17700
F934        F  0.13238408  0.08557326  0.45726768    -0.20000
C935        C  0.09001825  0.14801529  0.31278923    -0.21500
C936        C  0.11917284  0.16845643  0.32102338    -0.09500
C937        C  0.11982026  0.19641810  0.34999523     0.29400
C938        C  0.09094528  0.20577989  0.36889934    -0.21500
C939        C  0.06137455  0.18594161  0.36043899    -0.09500
C940        C  0.06133191  0.15617260  0.33264065     0.29400
F941        F  0.03428265  0.13330497  0.32604105    -0.20000
H942        H  0.08964760  0.12509542  0.29157522     0.17700
H943        H  0.09192671  0.22789291  0.39080268     0.17700
F944        F  0.14835536  0.21483292  0.35981915    -0.20000
C945        C  0.72897533  0.82283569  0.63285809    -0.21500
C946        C  0.76094171  0.83944870  0.63413072    -0.09500
C947        C  0.76403055  0.88041940  0.62463767     0.29400
C948        C  0.73671138  0.90294461  0.61271329    -0.21500
C949        C  0.70464391  0.88649222  0.61121834    -0.09500
C950        C  0.70134824  0.84587472  0.62240828     0.29400
F951        F  0.67131413  0.82871960  0.62637273    -0.20000
H952        H  0.72451959  0.79248755  0.64207719     0.17700
H953        H  0.74038361  0.93461086  0.60733399     0.17700
F954        F  0.79349297  0.89937082  0.62799721    -0.20000
C955        C  0.53059996  0.88213149  0.62182258    -0.21500
C956        C  0.51086883  0.90401837  0.59650014    -0.09500
C957        C  0.52601508  0.93681448  0.57798665     0.29400
C958        C  0.55978867  0.94478262  0.58283926    -0.21500
C959        C  0.57949328  0.92044401  0.60561330    -0.09500
C960        C  0.56439488  0.88960906  0.62579710     0.29400
F961        F  0.58235407  0.86659323  0.64942281    -0.20000
H962        H  0.52008977  0.85717832  0.63698846     0.17700
H963        H  0.57085323  0.96949101  0.56780874     0.17700
F964        F  0.50924903  0.96116313  0.55462631    -0.20000
C965        C  0.28057786  0.94557691  0.45397277    -0.21500
C966        C  0.27384265  0.93688219  0.41663829    -0.09500
C967        C  0.24134359  0.94047535  0.40357177     0.29400
C968        C  0.21597754  0.95075583  0.42793732    -0.21500
C969        C  0.22247741  0.95731141  0.46577856    -0.09500
C970        C  0.25517223  0.95525245  0.47848049     0.29400
F971        F  0.26253636  0.96128342  0.51474273    -0.20000
H972        H  0.30542242  0.94328249  0.46466957     0.17700
H973        H  0.19105038  0.95258289  0.41728911     0.17700
F974        F  0.23408302  0.93401842  0.36733193    -0.20000
C975        C  0.42362948  0.90805338  0.48091541    -0.21500
C976        C  0.40757391  0.89286836  0.51272313    -0.09500
C977        C  0.37405330  0.88230763  0.50942201     0.29400
C978        C  0.35765189  0.88565037  0.47524481    -0.21500
C979        C  0.37394887  0.90035684  0.44377788    -0.09500
C980        C  0.40697826  0.91201906  0.44696783     0.29400
F981        F  0.42342494  0.92606987  0.41694230    -0.20000
H982        H  0.44954405  0.91556493  0.48174607     0.17700
H983        H  0.33213486  0.87639326  0.47323590     0.17700
F984        F  0.35690292  0.86897920  0.53915678    -0.20000
C985        C  0.22650072  0.64002891  0.29349800    -0.21500
C986        C  0.25918466  0.62583133  0.29665913    -0.09500
C987        C  0.26337340  0.58541194  0.30746772     0.29400
C988        C  0.23616081  0.56089706  0.31566478    -0.21500
C989        C  0.20342487  0.57503509  0.31279421    -0.09500
C990        C  0.19922571  0.61524542  0.30078275     0.29400
F991        F  0.16902942  0.63033183  0.29278547    -0.20000
H992        H  0.22134964  0.66966972  0.28288586     0.17700
H993        H  0.24081759  0.52964125  0.32208287     0.17700
F994        F  0.29388692  0.56876555  0.30853087    -0.20000
C995        C  0.30276686  0.76592429  0.32819639    -0.21500
C996        C  0.31446088  0.76024294  0.29186291    -0.09500
C997        C  0.33257118  0.79156628  0.27555523     0.29400
C998        C  0.33730738  0.82821765  0.29445069    -0.21500
C999        C  0.32491373  0.83417350  0.33068059    -0.09500
C1000       C  0.30840873  0.80165343  0.34749848     0.29400
F1001       F  0.29781385  0.80415588  0.38308442    -0.20000
H1002       H  0.29013940  0.74190075  0.34253474     0.17700
H1003       H  0.35155652  0.85113431  0.28074764     0.17700
F1004       F  0.34584508  0.78673662  0.24138335    -0.20000
C1005       C  0.67140429  0.99053023  0.75175517    -0.21500
C1006       C  0.64410587  0.97495593  0.77063463    -0.09500
C1007       C  0.61554070  0.96484206  0.75025361     0.29400
C1008       C  0.61589056  0.96606617  0.71149018    -0.21500
C1009       C  0.64455187  0.97745823  0.69274121    -0.09500
C1010       C  0.67163373  0.99189403  0.71312201     0.29400
F1011       F  0.69963424  0.00322755  0.69546946    -0.20000
H1012       H  0.69340884  0.99925983  0.76674140     0.17700
H1013       H  0.59496204  0.95442673  0.69620664     0.17700
F1014       F  0.58806354  0.95115944  0.76751824    -0.20000
C1015       C  0.75924894  0.94148519  0.94386288    -0.21500
C1016       C  0.72669285  0.93413002  0.95436673    -0.09500
C1017       C  0.72033736  0.91816760  0.98979547     0.29400
C1018       C  0.74639316  0.90799812  0.01337440    -0.21500
C1019       C  0.77918540  0.91451508  0.00259896    -0.09500
C1020       C  0.78523067  0.93269958  0.96790973     0.29400
F1021       F  0.81613011  0.94114163  0.95627600    -0.20000
H1022       H  0.76463136  0.95426914  0.91694588     0.17700
H1023       H  0.74087556  0.89500360  0.04016142     0.17700
F1024       F  0.68902495  0.91118212  0.00128833    -0.20000
C1025       C  0.48862886  0.73035785  0.51698800    -0.21500
C1026       C  0.47418162  0.73394069  0.48184596    -0.09500
C1027       C  0.45018395  0.76348457  0.47550899     0.29400
C1028       C  0.44149986  0.78999649  0.50368054    -0.21500
C1029       C  0.45708482  0.78789635  0.53831380    -0.09500
C1030       C  0.48012493  0.75715978  0.54516274     0.29400
F1031       F  0.49526470  0.75413842  0.57862724    -0.20000
H1032       H  0.50677507  0.70722685  0.52235869     0.17700
H1033       H  0.42430478  0.81383789  0.49748039     0.17700
F1034       F  0.43688277  0.76859873  0.44132889    -0.20000
C1035       C  0.40330136  0.70543248  0.37785515    -0.21500
C1036       C  0.43402500  0.69278496  0.36404116    -0.09500
C1037       C  0.43504739  0.67440748  0.32877656     0.29400
C1038       C  0.40593779  0.66728481  0.30922453    -0.21500
C1039       C  0.37541243  0.67716297  0.32465364    -0.09500
C1040       C  0.37422231  0.69696917  0.35880366     0.29400
F1041       F  0.34502449  0.70846191  0.37363163    -0.20000
H1042       H  0.40139857  0.72074105  0.40411995     0.17700
H1043       H  0.40712537  0.65303977  0.28227819     0.17700
F1044       F  0.46362728  0.66104470  0.31379820    -0.20000
C1045       C  0.23432476  0.09021274  0.31457750    -0.21500
C1046       C  0.23681752  0.12568063  0.29338880    -0.09500
C1047       C  0.26885126  0.13725218  0.28233355     0.29400
C1048       C  0.29684985  0.11492725  0.29317061    -0.21500
C1049       C  0.29437033  0.07952679  0.31468012    -0.09500
C1050       C  0.26209090  0.06765229  0.32496104     0.29400
F1051       F  0.25630303  0.03241014  0.34250420    -0.20000
H1052       H  0.21050339  0.07804582  0.32173852     0.17700
H1053       H  0.32054490  0.12386740  0.28220761     0.17700
F1054       F  0.27326098  0.16901261  0.25932500    -0.20000
C1055       C  0.47365339  0.03043496  0.34081021    -0.21500
C1056       C  0.48812204  0.06323392  0.32204752    -0.09500
C1057       C  0.46785965  0.08456629  0.29671353     0.29400
C1058       C  0.43401040  0.07620865  0.29346024    -0.21500
C1059       C  0.41947603  0.04515763  0.31393736    -0.09500
C1060       C  0.43995546  0.02136481  0.33660463     0.29400
F1061       F  0.42704974  0.99042606  0.35629404    -0.20000
H1062       H  0.48769298  0.01214198  0.35975012     0.17700
H1063       H  0.41904717  0.09419509  0.27491839     0.17700
F1064       F  0.48045505  0.11535592  0.27657171    -0.20000
C1065       C  0.74243012  0.00705745  0.44509852    -0.21500
C1066       C  0.77513351  0.01385921  0.45576528    -0.09500
C1067       C  0.78159586  0.02839924  0.49170563     0.29400
C1068       C  0.75572062  0.03718991  0.51576914    -0.21500
C1069       C  0.72278529  0.03206469  0.50468257    -0.09500
C1070       C  0.71648213  0.01575551  0.46922740     0.29400
F1071       F  0.68541014  0.00962587  0.45678062    -0.20000
H1072       H  0.73684219  0.99562092  0.41769840     0.17700
H1073       H  0.76162056  0.04857603  0.54308098     0.17700
F1074       F  0.81288837  0.03538011  0.50340557    -0.20000
C1075       C  0.63913255  0.07616372  0.44803761    -0.21500
C1076       C  0.62150320  0.06536948  0.48008424    -0.09500
C1077       C  0.58766647  0.05753055  0.47650704     0.29400
C1078       C  0.57183717  0.06089982  0.44181012    -0.21500
C1079       C  0.58935710  0.07189942  0.40952351    -0.09500
C1080       C  0.62350683  0.07880245  0.41316896     0.29400
F1081       F  0.64198610  0.08766479  0.38297584    -0.20000
H1082       H  0.66519009  0.08282301  0.45006397     0.17700
H1083       H  0.54548668  0.05608566  0.44056077     0.17700
F1084       F  0.56975522  0.04738393  0.50679019    -0.20000
C1085       C  0.80196445  0.34834680  0.61803710    -0.21500
C1086       C  0.79653591  0.38944023  0.61110435    -0.09500
C1087       C  0.76364860  0.40332685  0.61317495     0.29400
C1088       C  0.73788662  0.37748132  0.62324005    -0.21500
C1089       C  0.74337535  0.33662586  0.63156783    -0.09500
C1090       C  0.77623235  0.32242468  0.62822522     0.29400
F1091       F  0.78497989  0.28441717  0.63693797    -0.20000
H1092       H  0.82656508  0.33611620  0.61842470     0.17700
H1093       H  0.71328874  0.38988563  0.62548588     0.17700
F1094       F  0.75654980  0.44283044  0.60838868    -0.20000
C1095       C  0.66297256  0.17491696  0.64898442    -0.21500
C1096       C  0.68452337  0.20422451  0.63498248    -0.09500
C1097       C  0.69805101  0.19768591  0.59940942     0.29400
C1098       C  0.69088619  0.16288447  0.57936080    -0.21500
C1099       C  0.67119580  0.13201498  0.59407491    -0.09500
C1100       C  0.65627122  0.13933798  0.62902708     0.29400
F1101       F  0.63371103  0.11370295  0.64333809    -0.20000
H1102       H  0.65084691  0.17985561  0.67527789     0.17700
H1103       H  0.70104681  0.16022299  0.55178877     0.17700
F1104       F  0.71713213  0.22576536  0.58266598    -0.20000
C1105       C  0.37939751  0.99320486  0.21295767    -0.21500
C1106       C  0.35023749  0.98478354  0.23208664    -0.09500
C1107       C  0.32257564  0.97103471  0.21232348     0.29400
C1108       C  0.32288328  0.97040982  0.17370269    -0.21500
C1109       C  0.35083008  0.98318786  0.15424487    -0.09500
C1110       C  0.37981355  0.99245027  0.17420273     0.29400
F1111       F  0.40774673  0.00388004  0.15647608    -0.20000
H1112       H  0.40085117  0.00409745  0.22776658     0.17700
H1113       H  0.30054488  0.96229444  0.15905457     0.17700
F1114       F  0.29424501  0.96184387  0.23035918    -0.20000
C1115       C  0.24963599  0.06205949  0.97543890    -0.21500
C1116       C  0.26027441  0.02222003  0.97994768    -0.09500
C1117       C  0.24654877  0.99215653  0.95729631     0.29400
C1118       C  0.22351556  0.00222689  0.92982548    -0.21500
C1119       C  0.21447811  0.04241919  0.92388497    -0.09500
C1120       C  0.22705495  0.07216567  0.94771673     0.29400
F1121       F  0.21723453  0.11100751  0.94456950    -0.20000
H1122       H  0.25968511  0.08577476  0.99259279     0.17700
H1123       H  0.21342171  0.97871200  0.91262707     0.17700
F1124       F  0.25564571  0.95317468  0.96136195    -0.20000
C1125       C  0.56529195  0.18147581  0.41023761    -0.21500
C1126       C  0.54563724  0.17951934  0.37826708    -0.09500
C1127       C  0.52132306  0.20907589  0.37249039     0.29400
C1128       C  0.51501243  0.23775750  0.39977866    -0.21500
C1129       C  0.53324887  0.23795195  0.43281712    -0.09500
C1130       C  0.55917934  0.21037212  0.43734735     0.29400
F1131       F  0.57696136  0.20918269  0.46917160    -0.20000
H1132       H  0.58392137  0.15896163  0.41564020     0.17700
H1133       H  0.49550489  0.25946369  0.39538760     0.17700
F1134       F  0.50292555  0.20937905  0.34103033    -0.20000
C1135       C  0.60495246  0.26859938  0.53982973    -0.21500
C1136       C  0.57341691  0.27990384  0.55219708    -0.09500
C1137       C  0.57023423  0.29476585  0.58882232     0.29400
C1138       C  0.59777463  0.29843564  0.61158747    -0.21500
C1139       C  0.62905060  0.28915337  0.59820513    -0.09500
C1140       C  0.63259098  0.27380757  0.56231438     0.29400
F1141       F  0.66268264  0.26345449  0.54910826    -0.20000
H1142       H  0.60866524  0.25635231  0.51246814     0.17700
H1143       H  0.59482991  0.31006925  0.63944778     0.17700
F1144       F  0.54121290  0.30830678  0.60246102    -0.20000
C1145       C  0.76389979  0.56980388  0.12113494    -0.21500
C1146       C  0.76199635  0.61021907  0.13254601    -0.09500
C1147       C  0.72997678  0.62642698  0.13723171     0.29400
C1148       C  0.70155394  0.60388608  0.12814169    -0.21500
C1149       C  0.70371273  0.56405824  0.11479916    -0.09500
C1150       C  0.73571885  0.54732788  0.11236287     0.29400
F1151       F  0.73994788  0.50789035  0.10419823    -0.20000
H1152       H  0.78744372  0.55463663  0.12002931     0.17700
H1153       H  0.67778410  0.61710262  0.13387331     0.17700
F1154       F  0.72569440  0.66301961  0.15300191    -0.20000
C1155       C  0.38961130  0.59339905  0.18131436    -0.21500
C1156       C  0.39819320  0.61820764  0.15121061    -0.09500
C1157       C  0.38454638  0.65729989  0.15012599     0.29400
C1158       C  0.36324032  0.67089382  0.17833238    -0.21500
C1159       C  0.35437330  0.64572178  0.20789324    -0.09500
C1160       C  0.36796906  0.60677826  0.20911746     0.29400
F1161       F  0.36108911  0.58195198  0.23792063    -0.20000
H1162       H  0.39968557  0.56336425  0.18335054     0.17700
H1163       H  0.35352139  0.70114779  0.17699735     0.17700
F1164       F  0.39275150  0.68317484  0.12268776    -0.20000
C1165       C  0.52112442  0.52206094  0.09234111    -0.21500
C1166       C  0.50845384  0.55672466  0.10981635    -0.09500
C1167       C  0.53042096  0.57862901  0.13279102     0.29400
C1168       C  0.56411500  0.56869738  0.13481840    -0.21500
C1169       C  0.57690809  0.53581608  0.11517845    -0.09500
C1170       C  0.55469368  0.51183629  0.09487607     0.29400
F1171       F  0.56569148  0.47965136  0.07543116    -0.20000
H1172       H  0.50580961  0.50317482  0.07528813     0.17700
H1173       H  0.58035005  0.58706558  0.15158072     0.17700
F1174       F  0.51971942  0.61156783  0.15138016    -0.20000
C1175       C  0.28882876  0.52085089  0.95726637    -0.21500
C1176       C  0.28121044  0.53548752  0.92171052    -0.09500
C1177       C  0.24810817  0.53649135  0.91030423     0.29400
C1178       C  0.22321347  0.52482862  0.93473599    -0.21500
C1179       C  0.23077624  0.51245775  0.97109134    -0.09500
C1180       C  0.26391013  0.51002996  0.98198063     0.29400
F1181       F  0.27226933  0.49770928  0.01658179    -0.20000
H1182       H  0.31409597  0.51893173  0.96656995     0.17700
H1183       H  0.19786185  0.52657643  0.92546248     0.17700
F1184       F  0.23979607  0.54845440  0.87554941    -0.20000
C1185       C  0.36168265  0.57715580  0.97984041    -0.21500
C1186       C  0.38032872  0.56511906  0.94899805    -0.09500
C1187       C  0.41342120  0.55437128  0.95462438     0.29400
C1188       C  0.42745864  0.55575987  0.99036067    -0.21500
C1189       C  0.40883574  0.56784177  0.02151370    -0.09500
C1190       C  0.37551291  0.57816809  0.01561696     0.29400
F1191       F  0.35610757  0.58925203  0.04441186    -0.20000
H1192       H  0.33628605  0.58628367  0.97612463     0.17700
H1193       H  0.45337031  0.54877195  0.99329947     0.17700
F1194       F  0.43245673  0.54363901  0.92539382    -0.20000
C1195       C  0.26500124  0.88524277  0.79472293    -0.21500
C1196       C  0.26149765  0.84380393  0.78750129    -0.09500
C1197       C  0.22896762  0.82829487  0.78788088     0.29400
C1198       C  0.20174308  0.85302254  0.79631570    -0.21500
C1199       C  0.20547358  0.89428087  0.80429512    -0.09500
C1200       C  0.23790502  0.90980730  0.80330954     0.29400
F1201       F  0.24339735  0.94965211  0.80827525    -0.20000
H1202       H  0.28904867  0.89918107  0.79307649     0.17700
H1203       H  0.17752960  0.83984507  0.79408071     0.17700
F1204       F  0.22256086  0.79009382  0.77718953    -0.20000
C1205       C  0.38987884  0.82800060  0.70761010    -0.21500
C1206       C  0.35700972  0.81825403  0.69967897    -0.09500
C1207       C  0.34629492  0.82241478  0.66267192     0.29400
C1208       C  0.36822513  0.83564236  0.63472041    -0.21500
C1209       C  0.40147270  0.84504342  0.64276763    -0.09500
C1210       C  0.41190974  0.84020147  0.67995856     0.29400
F1211       F  0.44376601  0.84578276  0.69006040    -0.20000
H1212       H  0.39865272  0.82699991  0.73580924     0.17700
H1213       H  0.35892527  0.83874393  0.60679383     0.17700
F1214       F  0.31478280  0.81321790  0.65338072    -0.20000
C1215       C  0.35495407  0.70120604  0.81005896    -0.21500
C1216       C  0.32458065  0.71014478  0.79291043    -0.09500
C1217       C  0.29998236  0.68035524  0.79404166     0.29400
C1218       C  0.30483814  0.64458590  0.81423006    -0.21500
C1219       C  0.33412542  0.63744967  0.83455451    -0.09500
C1220       C  0.35995578  0.66542473  0.82995551     0.29400
F1221       F  0.39049468  0.65819439  0.84375201    -0.20000
H1222       H  0.37507885  0.72220407  0.80886055     0.17700
H1223       H  0.28527265  0.62252133  0.81422841     0.17700
F1224       F  0.27128014  0.68554321  0.77529777    -0.20000
C1225       C  0.58745154  0.61963280  0.35514944    -0.21500
C1226       C  0.60953769  0.61220653  0.38409954    -0.09500
C1227       C  0.60562633  0.63249219  0.41779072     0.29400
C1228       C  0.57804842  0.65676319  0.42349984    -0.21500
C1229       C  0.55352956  0.66095189  0.39591156    -0.09500
C1230       C  0.55920430  0.64250785  0.36114507     0.29400
F1231       F  0.53577999  0.64158440  0.33435705    -0.20000
H1232       H  0.58973823  0.60349561  0.32921555     0.17700
H1233       H  0.57437261  0.66854676  0.45108311     0.17700
F1234       F  0.62679859  0.62592054  0.44634691    -0.20000
C1235       C  0.59379051  0.36715130  0.47327509    -0.21500
C1236       C  0.55996531  0.36679086  0.46501395    -0.09500
C1237       C  0.54673514  0.39670287  0.44181824     0.29400
C1238       C  0.56714605  0.42617892  0.42709347    -0.21500
C1239       C  0.60106186  0.42578287  0.43445896    -0.09500
C1240       C  0.61431861  0.39629352  0.45794527     0.29400
F1241       F  0.64695598  0.39577672  0.46623612    -0.20000
H1242       H  0.60438900  0.34489357  0.49164980     0.17700
H1243       H  0.55658897  0.44841986  0.40862824     0.17700
F1244       F  0.51448704  0.39639825  0.43177698    -0.20000
C1245       C  0.61670757  0.47641296  0.21109230    -0.21500
C1246       C  0.64468878  0.46573569  0.19084080    -0.09500
C1247       C  0.67199288  0.44907299  0.20933871     0.29400
C1248       C  0.67347055  0.44987884  0.24796593    -0.21500
C1249       C  0.64728759  0.46612207  0.26829052    -0.09500
C1250       C  0.61788184  0.47662412  0.24973192     0.29400
F1251       F  0.59175357  0.49186746  0.26848579    -0.20000
H1252       H  0.59553086  0.48939360  0.19721134     0.17700
H1253       H  0.69592929  0.44058408  0.26177226     0.17700
F1254       F  0.69881025  0.43687817  0.18993007    -0.20000
C1255       C  0.75799047  0.49551050  0.45478439    -0.21500
C1256       C  0.74175196  0.52684804  0.43630782    -0.09500
C1257       C  0.74814245  0.56669960  0.44699705     0.29400
C1258       C  0.76945045  0.57471815  0.47648172    -0.21500
C1259       C  0.78494614  0.54333499  0.49594888    -0.09500
C1260       C  0.77956073  0.50353130  0.48406373     0.29400
F1261       F  0.79409282  0.47198876  0.50119785    -0.20000
H1262       H  0.75330281  0.46456446  0.44721697     0.17700
H1263       H  0.77392026  0.60572831  0.48388207     0.17700
F1264       F  0.73274498  0.59796911  0.43011271    -0.20000
C1265       C  0.48056179  0.68467657  0.98227384    -0.21500
C1266       C  0.46359192  0.72137329  0.98326147    -0.09500
C1267       C  0.43873836  0.72662022  0.01023855     0.29400
C1268       C  0.43481722  0.69843793  0.03852381    -0.21500
C1269       C  0.45475540  0.66430447  0.03975471    -0.09500
C1270       C  0.47610246  0.65628540  0.00995468     0.29400
F1271       F  0.49288221  0.62108353  0.00758581    -0.20000
H1272       H  0.49801351  0.67816894  0.96042769     0.17700
H1273       H  0.41687384  0.70396287  0.06005566     0.17700
F1274       F  0.41874194  0.75907409  0.01055011    -0.20000
C1275       C  0.56231391  0.80306142  0.87961500    -0.21500
C1276       C  0.55060728  0.80123285  0.91638472    -0.09500
C1277       C  0.57275920  0.81031754  0.94530089     0.29400
C1278       C  0.60196904  0.83035669  0.93741789    -0.21500
C1279       C  0.60961203  0.84043156  0.90078560    -0.09500
C1280       C  0.59174236  0.82296341  0.87178460     0.29400
F1281       F  0.59969688  0.83067772  0.83596422    -0.20000
H1282       H  0.54797675  0.79237452  0.85646237     0.17700
H1283       H  0.61622117  0.84277319  0.96011403     0.17700
F1284       F  0.56387479  0.80565402  0.98129292    -0.20000
C1285       C  0.44568969  0.89549429  0.95563738    -0.21500
C1286       C  0.45077270  0.86054503  0.97649217    -0.09500
C1287       C  0.43557804  0.85635725  0.01109121     0.29400
C1288       C  0.41372646  0.88573401  0.02354157    -0.21500
C1289       C  0.40774688  0.92014300  0.00212169    -0.09500
C1290       C  0.42453668  0.92537631  0.96846400     0.29400
F1291       F  0.41942906  0.95848517  0.94726179    -0.20000
H1292       H  0.45731418  0.89897981  0.92881467     0.17700
H1293       H  0.40182637  0.88191654  0.05016345     0.17700
F1294       F  0.44258184  0.82460316  0.03322441    -0.20000
C1295       C  0.43462804  0.78383410  0.83954804    -0.21500
C1296       C  0.43037096  0.79693321  0.87607713    -0.09500
C1297       C  0.40085848  0.81652517  0.88547904     0.29400
C1298       C  0.37574396  0.82064600  0.85940600    -0.21500
C1299       C  0.37964478  0.80721717  0.82262816    -0.09500
C1300       C  0.41031197  0.78990020  0.81290693     0.29400
F1301       F  0.41759064  0.77807303  0.77805046    -0.20000
H1302       H  0.45705104  0.76868955  0.83125185     0.17700
H1303       H  0.35302960  0.83390887  0.86898004     0.17700
F1304       F  0.39615194  0.83290711  0.91943015    -0.20000
C1305       C  0.30315814  0.35690539  0.79125362    -0.21500
C1306       C  0.29861183  0.39544619  0.80683974    -0.09500
C1307       C  0.26561862  0.40842619  0.81124868     0.29400
C1308       C  0.23886625  0.38337095  0.80209385    -0.21500
C1309       C  0.24342964  0.34428383  0.78788294    -0.09500
C1310       C  0.27637734  0.33196942  0.78170813     0.29400
F1311       F  0.28318021  0.29715721  0.76381533    -0.20000
H1312       H  0.32754467  0.34661634  0.78394278     0.17700
H1313       H  0.21421913  0.39531508  0.80523432     0.17700
F1314       F  0.25888499  0.44652949  0.82215677    -0.20000
C1315       C  0.61124515  0.37172764  0.74653162    -0.21500
C1316       C  0.60082755  0.34542640  0.77476364    -0.09500
C1317       C  0.61294615  0.30559635  0.77400700     0.29400
C1318       C  0.63472477  0.29279880  0.74600710    -0.21500
C1319       C  0.64549340  0.31931912  0.71832542    -0.09500
C1320       C  0.63332994  0.35901749  0.71882816     0.29400
F1321       F  0.64189677  0.38522459  0.69169867    -0.20000
H1322       H  0.60225766  0.40235201  0.74588405     0.17700
H1323       H  0.64323833  0.26195866  0.74595030     0.17700
F1324       F  0.60267302  0.27826240  0.79930585    -0.20000
C1325       C  0.43704766  0.39862669  0.78614736    -0.21500
C1326       C  0.42325472  0.42888083  0.80825450    -0.09500
C1327       C  0.44398966  0.44965597  0.83290542     0.29400
C1328       C  0.47726349  0.43860906  0.83703529    -0.21500
C1329       C  0.49090016  0.40639500  0.81664835    -0.09500
C1330       C  0.47039681  0.38793308  0.78975878     0.29400
F1331       F  0.48205344  0.35736796  0.76862614    -0.20000
H1332       H  0.42176476  0.38270732  0.76638877     0.17700
H1333       H  0.49143395  0.45465103  0.85747551     0.17700
F1334       F  0.43157661  0.47905254  0.85487339    -0.20000
C1335       C  0.70959358  0.42518697  0.96414378    -0.21500
C1336       C  0.71705652  0.42040151  0.00194526    -0.09500
C1337       C  0.74931425  0.42730500  0.01430054     0.29400
C1338       C  0.77376468  0.43841317  0.98916031    -0.21500
C1339       C  0.76671663  0.44201920  0.95113514    -0.09500
C1340       C  0.73429292  0.43542631  0.93875223     0.29400
F1341       F  0.72647122  0.43896044  0.90231899    -0.20000
H1342       H  0.68479144  0.41986490  0.95412280     0.17700
H1343       H  0.79858716  0.44311243  0.99937914     0.17700
F1344       F  0.75712039  0.42353556  0.05072205    -0.20000
C1345       C  0.60451786  0.42340466  0.96316599    -0.21500
C1346       C  0.61717227  0.38855331  0.98029006    -0.09500
C1347       C  0.61618000  0.35251901  0.95978348     0.29400
C1348       C  0.60193581  0.35120254  0.92442803    -0.21500
C1349       C  0.58888020  0.38575526  0.90714892    -0.09500
C1350       C  0.59081521  0.42224704  0.92714750     0.29400
F1351       F  0.58031879  0.45719111  0.91182007    -0.20000
H1352       H  0.60528528  0.45185238  0.97760541     0.17700
H1353       H  0.60105506  0.32227749  0.91105772     0.17700
F1354       F  0.63025950  0.31838611  0.97290765    -0.20000
C1355       C  0.79831244  0.09787363  0.13408731    -0.21500
C1356       C  0.79497961  0.06272634  0.11240459    -0.09500
C1357       C  0.76252000  0.05259754  0.10117260     0.29400
C1358       C  0.73549250  0.07734462  0.10982071    -0.21500
C1359       C  0.73901183  0.11291372  0.13069972    -0.09500
C1360       C  0.77105433  0.12200375  0.14363365     0.29400
F1361       F  0.77606376  0.15326430  0.16707447    -0.20000
H1362       H  0.82203779  0.10536378  0.14599350     0.17700
H1363       H  0.71135939  0.06686951  0.10164830     0.17700
F1364       F  0.75577823  0.01719116  0.08436309    -0.20000
C1365       C  0.60813171  0.15637813  0.27286499    -0.21500
C1366       C  0.60033721  0.11562508  0.27863430    -0.09500
C1367       C  0.61495111  0.08700507  0.25511844     0.29400
C1368       C  0.63715022  0.09884844  0.22718549    -0.21500
C1369       C  0.64479793  0.13966718  0.22104120    -0.09500
C1370       C  0.62955596  0.16837970  0.24409653     0.29400
F1371       F  0.63558367  0.20809199  0.23915936    -0.20000
H1372       H  0.59688986  0.17913700  0.29013286     0.17700
H1373       H  0.64775306  0.07594083  0.20958109     0.17700
F1374       F  0.60794392  0.04741624  0.25929113    -0.20000
C1375       C  0.67175660  0.28133753  0.15096041    -0.21500
C1376       C  0.68439181  0.24854554  0.13121914    -0.09500
C1377       C  0.68862963  0.25285029  0.09265849     0.29400
C1378       C  0.68086252  0.28903942  0.07475560    -0.21500
C1379       C  0.66904714  0.32279601  0.09429071    -0.09500
C1380       C  0.66423246  0.31795325  0.13314598     0.29400
F1381       F  0.65125581  0.34724418  0.15454001    -0.20000
H1382       H  0.66706529  0.27832595  0.18035936     0.17700
H1383       H  0.68425005  0.29076761  0.04504121     0.17700
F1384       F  0.69870855  0.22131727  0.07171904    -0.20000
C1385       C  0.44258447  0.54965470  0.49136630    -0.21500
C1386       C  0.40843287  0.55058275  0.48545845    -0.09500
C1387       C  0.39500286  0.57846745  0.46046642     0.29400
C1388       C  0.41557823  0.60582668  0.44257249    -0.21500
C1389       C  0.44963966  0.60605156  0.44975301    -0.09500
C1390       C  0.46306501  0.57733667  0.47398973     0.29400
F1391       F  0.49561022  0.57740248  0.48267110    -0.20000
H1392       H  0.45335471  0.52837348  0.51061089     0.17700
H1393       H  0.40479376  0.62710278  0.42336547     0.17700
F1394       F  0.36217419  0.57911529  0.45316836    -0.20000
C1395       C  0.43073454  0.31938543  0.49343439    -0.21500
C1396       C  0.45619434  0.31485368  0.51975796    -0.09500
C1397       C  0.45272653  0.33476887  0.55428061     0.29400
C1398       C  0.42529389  0.35854806  0.56152252    -0.21500
C1399       C  0.40197652  0.36576706  0.53385820    -0.09500
C1400       C  0.40413053  0.34498351  0.50018449     0.29400
F1401       F  0.38202776  0.35203180  0.47265706    -0.20000
H1402       H  0.43298860  0.30670408  0.46599851     0.17700
H1403       H  0.42454478  0.37538963  0.58719227     0.17700
F1404       F  0.47767006  0.33636671  0.57927969    -0.20000
C1405       C  0.32653271  0.51571702  0.67417563    -0.21500
C1406       C  0.35546433  0.50678180  0.65471081    -0.09500
C1407       C  0.38496396  0.50077715  0.67481636     0.29400
C1408       C  0.38406474  0.49696725  0.71343411    -0.21500
C1409       C  0.35397285  0.49969888  0.73216621    -0.09500
C1410       C  0.32586587  0.51281793  0.71273423     0.29400
F1411       F  0.29687238  0.51844959  0.73069739    -0.20000
H1412       H  0.30381222  0.52187668  0.65944968     0.17700
H1413       H  0.40609598  0.48749784  0.72801634     0.17700
F1414       F  0.41395556  0.49419095  0.65714900    -0.20000
C1415       C  0.25901235  0.40528906  0.47854073    -0.21500
C1416       C  0.26777397  0.44578294  0.48328975    -0.09500
C1417       C  0.25241925  0.47494567  0.46087213     0.29400
C1418       C  0.22911571  0.46357833  0.43416236    -0.21500
C1419       C  0.22119703  0.42297505  0.42852860    -0.09500
C1420       C  0.23612488  0.39389468  0.45146363     0.29400
F1421       F  0.22804237  0.35448555  0.44848386    -0.20000
H1422       H  0.27044379  0.38215507  0.49531556     0.17700
H1423       H  0.21769262  0.48661911  0.41743789     0.17700
F1424       F  0.26028559  0.51439310  0.46422309    -0.20000
C1425       C  0.51835585  0.27727712  0.94183453    -0.21500
C1426       C  0.53078254  0.23827286  0.93896741    -0.09500
C1427       C  0.54900678  0.22713143  0.90740186     0.29400
C1428       C  0.55380566  0.25463267  0.87866205    -0.21500
C1429       C  0.54027288  0.29314130  0.88104375    -0.09500
C1430       C  0.52318864  0.30465053  0.91332693     0.29400
F1431       F  0.51112599  0.34244488  0.91732231    -0.20000
H1432       H  0.50459023  0.28641647  0.96612005     0.17700
H1433       H  0.56722131  0.24553206  0.85415131     0.17700
F1434       F  0.56058659  0.18916326  0.90335116    -0.20000
C1435       C  0.43904379  0.15070602  0.04804942    -0.21500
C1436       C  0.45057135  0.15550063  0.01150294    -0.09500
C1437       C  0.42906664  0.14594181  0.98204910     0.29400
C1438       C  0.40027141  0.12456622  0.98889903    -0.21500
C1439       C  0.39228559  0.11312631  0.02510639    -0.09500
C1440       C  0.41014091  0.12935325  0.05486598     0.29400
F1441       F  0.40219666  0.12030729  0.09042525    -0.20000
H1442       H  0.45306853  0.16040901  0.07176857     0.17700
H1443       H  0.38609890  0.11341960  0.96559726     0.17700
F1444       F  0.43789431  0.15272710  0.94632635    -0.20000
C1445       C  0.58886074  0.10623814  0.95751141    -0.21500
C1446       C  0.55486397  0.10767007  0.94990788    -0.09500
C1447       C  0.54143610  0.08020989  0.92440682     0.29400
C1448       C  0.56128198  0.05040060  0.90901833    -0.21500
C1449       C  0.59489031  0.04817452  0.91791829    -0.09500
C1450       C  0.60878671  0.07699698  0.94152303     0.29400
F1451       F  0.64122089  0.07570854  0.95074844    -0.20000
H1452       H  0.60013074  0.12670590  0.97702551     0.17700
H1453       H  0.55030304  0.02884381  0.89019951     0.17700
F1454       F  0.50936336  0.08233384  0.91390457    -0.20000
C1455       C  0.58133234  0.20521796  0.06997291    -0.21500
C1456       C  0.56949896  0.17202138  0.05068611    -0.09500
C1457       C  0.58347517  0.13401702  0.05672992     0.29400
C1458       C  0.61015287  0.12974252  0.08085875    -0.21500
C1459       C  0.62265853  0.16312178  0.10002111    -0.09500
C1460       C  0.60743652  0.20093394  0.09477770     0.29400
F1461       F  0.61787325  0.23426417  0.11262127    -0.20000
H1462       H  0.57032848  0.23453240  0.06576131     0.17700
H1463       H  0.62079107  0.10022953  0.08490570     0.17700
F1464       F  0.57106314  0.10101642  0.03965227    -0.20000
loop_ 
_geom_bond_atom_site_label_1 
_geom_bond_atom_site_label_2 
_geom_bond_distance 
_geom_bond_site_symmetry_2 
_ccdc_geom_bond_type 
C1            C2   1.546   1_554  S
C1            C7   1.530   1_554  S
C1            C5   1.541       .  S
C1         C1436   1.520       .  S
C2            H9   1.085       .  S
C2            C3   1.368       .  D
C3            C4   1.529       .  S
C3         C1446   1.482       .  S
C4            C8   1.531       .  S
C4            C6   1.531   1_556  S
C4           H10   1.109       .  S
C5           H11   1.082       .  S
C5            C6   1.359       .  D
C6         C1456   1.464       .  S
C7           H12   1.086       .  S
C7            C8   1.364       .  D
C8         C1426   1.471       .  S
In13         O15   2.247       .  S
In13         O16   2.219       .  S
In13         O24   2.250       .  S
In13         O18   2.248       .  S
In13         O20   2.240       .  S
In13         O21   2.268       .  S
In13         O22   2.221       .  S
In13         O25   2.246       .  S
C14          O20   1.263       .  A
C14          O22   1.261       .  A
C14        C1399   1.465       .  S
O15          C23   1.261       .  A
O16          C23   1.257       .  A
C17          O24   1.261       .  A
C17          O18   1.261       .  A
C17        C1416   1.484       .  S
C19          O21   1.263       .  A
C19          O25   1.254       .  A
C19        C1406   1.480       .  S
C23        C1386   1.466       .  S
C26          C27   1.539       .  S
C26          C32   1.544       .  S
C26          C30   1.552       .  S
C26        C1359   1.556       .  S
C27          H34   1.086       .  S
C27          C28   1.372       .  D
C28          C29   1.552       .  S
C28        C1369   1.515       .  S
C29          C33   1.548       .  S
C29          C31   1.532       .  S
C29          H35   1.108       .  S
C30          H36   1.084       .  S
C30          C31   1.372       .  D
C31        C1459   1.486       .  S
C32          H37   1.086       .  S
C32          C33   1.372       .  D
C33        C1376   1.504       .  S
C38          C39   1.545       .  S
C38          C44   1.547       .  S
C38          C42   1.540       .  S
C38        C1379   1.558       .  S
C39          H46   1.086       .  S
C39          C40   1.367       .  D
C40          C41   1.529       .  S
C40        C1336   1.479       .  S
C41          C45   1.548       .  S
C41          C43   1.547       .  S
C41          H47   1.110       .  S
C42          H48   1.077       .  S
C42          C43   1.366       .  D
C43         C137   1.494       .  S
C44          H49   1.084       .  S
C44          C45   1.379       .  D
C45        C1346   1.513   1_554  S
C50          C51   1.532       .  S
C50          C56   1.539       .  S
C50          C54   1.562       .  S
C50        C1329   1.550       .  S
C51          H58   1.088       .  S
C51          C52   1.359       .  D
C52          C53   1.533       .  S
C52        C1429   1.474       .  S
C53          C57   1.554       .  S
C53          C55   1.550       .  S
C53          H59   1.107       .  S
C54          H60   1.078       .  S
C54          C55   1.380       .  D
C55        C1349   1.522       .  S
C56          H61   1.086       .  S
C56          C57   1.373       .  D
C57        C1316   1.513       .  S
C62          C63   1.552       .  S
C62          C68   1.525       .  S
C62          C66   1.554       .  S
C62        C1306   1.553       .  S
C63          H70   1.085       .  S
C63          C64   1.375       .  D
C64          C65   1.542       .  S
C64        C1326   1.497       .  S
C65          C69   1.536       .  S
C65          C67   1.541       .  S
C65          H71   1.111       .  S
C66          H72   1.085       .  S
C66          C67   1.377       .  D
C67         C113   1.494       .  S
C68          H73   1.088       .  S
C68          C69   1.359       .  D
C69        C1409   1.479       .  S
C74          C75   1.526       .  S
C74          C80   1.541       .  S
C74          C78   1.538       .  S
C74        C1276   1.521       .  S
C75          H82   1.086       .  S
C75          C76   1.371       .  D
C76          C77   1.538       .  S
C76        C1266   1.488       .  S
C77          C81   1.532       .  S
C77          C79   1.537       .  S
C77          H83   1.103       .  S
C78          H84   1.080       .  S
C78          C79   1.366       .  D
C79        C1296   1.485       .  S
C80          H85   1.087       .  S
C80          C81   1.360       .  D
C81        C1286   1.467       .  S
In86         O88   2.268       .  S
In86         O89   2.221       .  S
In86         O97   2.238       .  S
In86         O91   2.234       .  S
In86         O93   2.235       .  S
In86         O94   2.219       .  S
In86         O95   2.221       .  S
In86         O98   2.239       .  S
C87          O93   1.264       .  A
C87          O95   1.262       .  A
C87        C1226   1.467       .  S
O88          C96   1.264       .  A
O89          C96   1.253       .  A
C90          O97   1.261       .  A
C90          O91   1.260       .  A
C90        C1256   1.474       .  S
C92          O94   1.258       .  A
C92          O98   1.260       .  A
C92        C1239   1.463       .  S
C96        C1249   1.473       .  S
C99         C100   1.551       .  S
C99         C105   1.542       .  S
C99         C103   1.546       .  S
C99        C1196   1.558       .  S
C100        H107   1.082       .  S
C100        C101   1.373       .  D
C101        C102   1.545       .  S
C101       C1216   1.516       .  S
C102        C106   1.553       .  S
C102        C104   1.540       .  S
C102        H108   1.101       .  S
C103        H109   1.083       .  S
C103        C104   1.376       .  D
C104       C1299   1.503       .  S
C105        H110   1.086       .  S
C105        C106   1.369       .  D
C106       C1206   1.512       .  S
C111        C112   1.533       .  S
C111        C117   1.551       .  S
C111        C115   1.548       .  S
C111       C1219   1.550       .  S
C112        H119   1.087       .  S
C112        C113   1.367       .  D
C113        C114   1.546       .  S
C114        C118   1.548       .  S
C114        C116   1.534       .  S
C114        H120   1.110       .  S
C115        H121   1.085       .  S
C115        C116   1.371       .  D
C116       C1176   1.485       .  S
C117        H122   1.085       .  S
C117        C118   1.371       .  D
C118       C1186   1.499       .  S
C123        C124   1.561       .  S
C123        C129   1.539       .  S
C123        C127   1.530       .  S
C123       C1166   1.553       .  S
C124        H131   1.081       .  S
C124        C125   1.378       .  D
C125        C126   1.545       .  S
C125       C1189   1.514       .  S
C126        C130   1.559       .  S
C126        C128   1.530       .  S
C126        H132   1.108       .  S
C127        H133   1.088       .  S
C127        C128   1.359       .  D
C128       C1269   1.475       .  S
C129        H134   1.086       .  S
C129        C130   1.375       .  D
C130       C1156   1.514       .  S
C135        C136   1.554       .  S
C135        C141   1.524       .  S
C135        C139   1.557       .  S
C135       C1149   1.551       .  S
C136        H143   1.085       .  S
C136        C137   1.374       .  D
C137        C138   1.542       .  S
C138        C142   1.531       .  S
C138        C140   1.543       .  S
C138        H144   1.111       .  S
C139        H145   1.084       .  S
C139        C140   1.381       .  D
C140       C1169   1.505       .  S
C141        H146   1.088       .  S
C141        C142   1.355       .  D
C142       C1246   1.470       .  S
C147        C148   1.538       .  S
C147        C153   1.535       .  S
C147        C151   1.537       .  S
C147       C1396   1.521       .  S
C148        H155   1.085       .  S
C148        C149   1.369       .  D
C149        C150   1.539       .  S
C149       C1129   1.478       .  S
C150        C154   1.527       .  S
C150        C152   1.542       .  S
C150        H156   1.107       .  S
C151        H157   1.082       .  S
C151        C152   1.367       .  D
C152       C1136   1.493       .  S
C153        H158   1.086       .  S
C153        C154   1.358       .  D
C154       C1236   1.475       .  S
In159       O161   2.252   1_545  S
In159       O162   2.230       .  S
In159       O170   2.243       .  S
In159       O164   2.256   1_545  S
In159       O166   2.238       .  S
In159       O167   2.238   1_545  S
In159       O168   2.215       .  S
In159       O171   2.229   1_545  S
C160        O166   1.261       .  A
C160        O168   1.261       .  A
C160       C1439   1.466       .  S
O161        C169   1.266       .  A
O162        C169   1.258   1_545  A
C163        O170   1.259       .  A
C163        O164   1.260   1_545  A
C163       C1116   1.479   1_554  S
C165        O167   1.262       .  A
C165        O171   1.259       .  A
C165       C1289   1.466       .  S
C169       C1109   1.478       .  S
C172        C173   1.551       .  S
C172        C178   1.541       .  S
C172        C176   1.546       .  S
C172       C1089   1.553       .  S
C173        H180   1.077       .  S
C173        C174   1.372       .  D
C174        C175   1.544       .  S
C174       C1096   1.512       .  S
C175        C179   1.550       .  S
C175        C177   1.525       .  S
C175        H181   1.111       .  S
C176        H182   1.086       .  S
C176        C177   1.365       .  D
C177       C1139   1.465       .  S
C178        H183   1.086       .  S
C178        C179   1.370       .  D
C179       C1319   1.505       .  S
C184        C185   1.539       .  S
C184        C190   1.544       .  S
C184        C188   1.549       .  S
C184       C1099   1.552       .  S
C185        H192   1.083       .  S
C185        C186   1.364       .  D
C186        C187   1.549       .  S
C186        C286   1.493   1_545  S
C187        C191   1.550       .  S
C187        C189   1.535       .  S
C187        H193   1.108       .  S
C188        H194   1.085       .  S
C188        C189   1.371       .  D
C189       C1069   1.494       .  S
C190        H195   1.086       .  S
C190        C191   1.372       .  D
C191       C1076   1.504       .  S
C196        C197   1.556       .  S
C196        C202   1.544       .  S
C196        C200   1.532       .  S
C196       C1056   1.552       .  S
C197        H204   1.081       .  S
C197        C198   1.378       .  D
C198        C199   1.554       .  S
C198       C1079   1.517       .  S
C199        C203   1.553       .  S
C199        C201   1.537       .  S
C199        H205   1.109       .  S
C200        H206   1.087       .  S
C200        C201   1.361       .  D
C201       C1126   1.481       .  S
C202        H207   1.086       .  S
C202        C203   1.373       .  D
C203       C1366   1.508       .  S
C208        C209   1.552       .  S
C208        C214   1.524       .  S
C208        C212   1.555       .  S
C208       C1049   1.552       .  S
C209        H216   1.082       .  S
C209        C210   1.372   1_545  D
C210        C211   1.540       .  S
C210        C262   1.491       .  S
C211        C215   1.534   1_565  S
C211        C213   1.543   1_565  S
C211        H217   1.111       .  S
C212        H218   1.086       .  S
C212        C213   1.381       .  D
C213       C1059   1.500       .  S
C214        H219   1.088       .  S
C214        C215   1.355       .  D
C215       C1106   1.474   1_545  S
C220        C221   1.539       .  S
C220        C226   1.540       .  S
C220        C224   1.546       .  S
C220       C1229   1.524       .  S
C221        H228   1.086       .  S
C221        C222   1.360       .  D
C222        C223   1.524       .  S
C222       C1389   1.476       .  S
C223        C227   1.529       .  S
C223        C225   1.536       .  S
C223        H229   1.107       .  S
C224        H230   1.082       .  S
C224        C225   1.372       .  D
C225       C1036   1.490       .  S
C226        H231   1.085       .  S
C226        C227   1.363       .  D
C227       C1026   1.470       .  S
In232       O234   2.218       .  S
In232       O235   2.237   1_565  S
In232       O243   2.254       .  S
In232       O237   2.214       .  S
In232       O239   2.260       .  S
In232       O240   2.254       .  S
In232       O241   2.187       .  S
In232       O244   2.222       .  S
C233        O239   1.263       .  A
C233        O241   1.258       .  A
C233       C1279   1.458       .  S
O234        C242   1.258   1_565  A
O235        C242   1.261       .  A
C236        O243   1.267       .  A
C236        O237   1.257       .  A
C236       C1016   1.473       .  S
C238        O240   1.267       .  A
C238        O244   1.259       .  A
C238       C1006   1.479       .  S
C242       C1449   1.465       .  S
C245        C246   1.538       .  S
C245        C251   1.547       .  S
C245        C249   1.552       .  S
C245        C986   1.550       .  S
C246        H253   1.086       .  S
C246        C247   1.367       .  D
C247        C248   1.547       .  S
C247       C1159   1.503       .  S
C248        C252   1.545       .  S
C248        C250   1.524       .  S
C248        H254   1.111       .  S
C249        H255   1.086       .  S
C249        C250   1.371       .  D
C250       C1039   1.468       .  S
C251        H256   1.084       .  S
C251        C252   1.373       .  D
C252        C996   1.507       .  S
C257        C258   1.547       .  S
C257        C263   1.540       .  S
C257        C261   1.545       .  S
C257        C999   1.544       .  S
C258        H265   1.086       .  S
C258        C259   1.368       .  D
C259        C260   1.533       .  S
C259        C966   1.483       .  S
C260        C264   1.541       .  S
C260        C262   1.544       .  S
C260        H266   1.111       .  S
C261        H267   1.083       .  S
C261        C262   1.370       .  D
C263        H268   1.086       .  S
C263        C264   1.366       .  D
C264        C979   1.487       .  S
C269        C270   1.531       .  S
C269        C275   1.539       .  S
C269        C273   1.549       .  S
C269        C956   1.550       .  S
C270        H277   1.087       .  S
C270        C271   1.356       .  D
C271        C272   1.535       .  S
C271       C1029   1.475       .  S
C272        C276   1.559       .  S
C272        C274   1.552       .  S
C272        H278   1.107       .  S
C273        H279   1.077       .  S
C273        C274   1.374       .  D
C274        C976   1.509       .  S
C275        H280   1.083       .  S
C275        C276   1.379       .  D
C276       C1209   1.523       .  S
C281        C282   1.554       .  S
C281        C287   1.522       .  S
C281        C285   1.553       .  S
C281        C949   1.548       .  S
C282        H289   1.083       .  S
C282        C283   1.377       .  D
C283        C284   1.538       .  S
C283        C959   1.491       .  S
C284        C288   1.536       .  S
C284        C286   1.543       .  S
C284        H290   1.111       .  S
C285        H291   1.086       .  S
C285        C286   1.376       .  D
C287        H292   1.089       .  S
C287        C288   1.353       .  D
C288       C1009   1.474       .  S
C293        C294   1.536       .  S
C293        C299   1.542       .  S
C293        C297   1.545   1_655  S
C293        C916   1.522       .  S
C294        H301   1.086       .  S
C294        C295   1.363   1_655  D
C295        C296   1.528       .  S
C295        C906   1.474       .  S
C296        C300   1.524       .  S
C296        C298   1.533       .  S
C296        H302   1.109       .  S
C297        H303   1.082   1_455  S
C297        C298   1.370       .  D
C298        C939   1.479       .  S
C299        H304   1.086       .  S
C299        C300   1.361   1_655  D
C300        C929   1.473       .  S
In305       O307   2.216       .  S
In305       O308   2.269       .  S
In305       O316   2.273       .  S
In305       O310   2.229       .  S
In305       O312   2.255       .  S
In305       O313   2.253       .  S
In305       O314   2.239       .  S
In305       O317   2.214       .  S
C306        O312   1.258       .  A
C306        O314   1.257       .  A
C306        C876   1.471       .  S
O307        C315   1.257       .  A
O308        C315   1.267       .  A
C309        O316   1.264       .  A
C309        O310   1.258       .  A
C309       C1339   1.479       .  S
C311        O313   1.264       .  A
C311        O317   1.259       .  A
C311        C886   1.472       .  S
C315        C899   1.479       .  S
C318        C319   1.544       .  S
C318        C324   1.548       .  S
C318        C322   1.550       .  S
C318       C1046   1.557       .  S
C319        H326   1.083       .  S
C319        C320   1.377       .  D
C320        C321   1.559       .  S
C320        C866   1.526       .  S
C321        C325   1.556       .  S
C321        C323   1.526       .  S
C321        H327   1.109       .  S
C322        H328   1.085       .  S
C322        C323   1.361       .  D
C323        C936   1.466       .  S
C324        H329   1.085       .  S
C324        C325   1.376       .  D
C325        C856   1.526       .  S
C330        C331   1.530       .  S
C330        C336   1.552       .  S
C330        C334   1.550       .  S
C330        C869   1.552       .  S
C331        H338   1.087       .  S
C331        C332   1.363       .  D
C332        C333   1.553       .  S
C332        C432   1.496       .  S
C333        C337   1.547       .  S
C333        C335   1.537       .  S
C333        H339   1.111       .  S
C334        H340   1.085       .  S
C334        C335   1.371       .  D
C335       C1419   1.493       .  S
C336        H341   1.085       .  S
C336        C337   1.375       .  D
C337        C849   1.500       .  S
C342        C343   1.555       .  S
C342        C348   1.542       .  S
C342        C346   1.529       .  S
C342        C839   1.549   1_455  S
C343        H350   1.081       .  S
C343        C344   1.376       .  D
C344        C345   1.549       .  S
C344        C846   1.510       .  S
C345        C349   1.559       .  S
C345        C347   1.541       .  S
C345        H351   1.109       .  S
C346        H352   1.087   1_455  S
C346        C347   1.360       .  D
C347        C909   1.483       .  S
C348        H353   1.086       .  S
C348        C349   1.375       .  D
C349        C826   1.517       .  S
C354        C355   1.545       .  S
C354        C360   1.524       .  S
C354        C358   1.554       .  S
C354       C1086   1.543       .  S
C355        H362   1.080       .  S
C355        C356   1.373       .  D
C356        C357   1.544       .  S
C356        C408   1.490       .  S
C357        C361   1.540       .  S
C357        C359   1.541       .  S
C357        H363   1.111       .  S
C358        H364   1.083       .  S
C358        C359   1.374       .  D
C359        C836   1.495       .  S
C360        H365   1.088       .  S
C360        C361   1.354       .  D
C361        C896   1.476       .  S
C366        C367   1.545       .  S
C366        C372   1.536       .  S
C366        C370   1.538   1_455  S
C366        C796   1.525       .  S
C367        H374   1.086       .  S
C367        C368   1.364   1_455  D
C368        C369   1.529       .  S
C368        C806   1.487       .  S
C369        C373   1.531       .  S
C369        C371   1.537       .  S
C369        H375   1.105       .  S
C370        H376   1.080       .  S
C370        C371   1.364       .  D
C371        C816   1.481       .  S
C372        H377   1.086       .  S
C372        C373   1.365   1_455  D
C373        C786   1.474       .  S
In378       O380   2.238       .  S
In378       O381   2.219       .  S
In378       O389   2.267       .  S
In378       O383   2.216   1_554  S
In378       O385   2.269       .  S
In378       O386   2.266       .  S
In378       O387   2.201       .  S
In378       O390   2.233       .  S
C379        O385   1.261       .  A
C379        O387   1.255       .  A
C379        C769   1.462       .  S
O380        C388   1.263       .  A
O381        C388   1.258       .  A
C382        O389   1.267   1_556  A
C382        O383   1.256       .  A
C382       C1179   1.478       .  S
C384        O386   1.268       .  A
C384        O390   1.259       .  A
C384        C776   1.486       .  S
C388        C759   1.468   1_554  S
C391        C392   1.544       .  S
C391        C397   1.550       .  S
C391        C395   1.540       .  S
C391        C946   1.551       .  S
C392        H399   1.085       .  S
C392        C393   1.373       .  D
C393        C394   1.546       .  S
C393        C736   1.514       .  S
C394        C398   1.552       .  S
C394        C396   1.527       .  S
C394        H400   1.108       .  S
C395        H401   1.086       .  S
C395        C396   1.361       .  D
C396        C819   1.461       .  S
C397        H402   1.080       .  S
C397        C398   1.379       .  D
C398        C746   1.520       .  S
C403        C404   1.550       .  S
C403        C409   1.545       .  S
C403        C407   1.524       .  S
C403        C749   1.546       .  S
C404        H411   1.085       .  S
C404        C405   1.374       .  D
C405        C406   1.534       .  S
C405       C1259   1.491       .  S
C406        C410   1.547       .  S
C406        C408   1.553       .  S
C406        H412   1.107       .  S
C407        H413   1.087       .  S
C407        C408   1.362       .  D
C409        H414   1.083       .  S
C409        C410   1.374       .  D
C410        C729   1.510       .  S
C415        C416   1.535       .  S
C415        C421   1.534       .  S
C415        C419   1.560       .  S
C415        C716   1.547   1_655  S
C416        H423   1.088   1_655  S
C416        C417   1.360       .  D
C417        C418   1.536       .  S
C417        C789   1.480       .  S
C418        C422   1.551       .  S
C418        C420   1.549       .  S
C418        H424   1.108       .  S
C419        H425   1.076       .  S
C419        C420   1.379       .  D
C420        C726   1.515       .  S
C421        H426   1.086       .  S
C421        C422   1.367       .  D
C422        C709   1.501       .  S
C427        C428   1.550       .  S
C427        C433   1.528       .  S
C427        C431   1.550       .  S
C427        C989   1.548       .  S
C428        H435   1.083       .  S
C428        C429   1.374       .  D
C429        C430   1.542       .  S
C429        C719   1.494       .  S
C430        C434   1.538       .  S
C430        C432   1.548       .  S
C430        H436   1.111       .  S
C431        H437   1.082       .  S
C431        C432   1.373       .  D
C433        H438   1.088       .  S
C433        C434   1.358       .  D
C434        C779   1.481       .  S
C439        C440   1.527   1_554  S
C439        C445   1.547   1_554  S
C439        C443   1.541   1_455  S
C439        C766   1.526       .  S
C440        H447   1.086       .  S
C440        C441   1.364   1_455  D
C441        C442   1.534       .  S
C441        C686   1.476       .  S
C442        C446   1.532       .  S
C442        C444   1.542   1_556  S
C442        H448   1.107       .  S
C443        H449   1.079   1_655  S
C443        C444   1.368       .  D
C444        C696   1.497       .  S
C445        H450   1.086       .  S
C445        C446   1.367   1_455  D
C446        C889   1.480       .  S
In451       O453   2.252       .  S
In451       O454   2.230       .  S
In451       O462   2.257       .  S
In451       O456   2.224       .  S
In451       O458   2.222       .  S
In451       O459   2.213       .  S
In451       O460   2.257       .  S
In451       O463   2.231   1_565  S
C452        O458   1.255       .  A
C452        O460   1.258       .  A
C452        C799   1.463       .  S
O453        C461   1.267       .  A
O454        C461   1.260       .  A
C455        O462   1.265       .  A
C455        O456   1.257       .  A
C455        C969   1.479       .  S
C457        O459   1.259   1_545  A
C457        O463   1.262       .  A
C457        C926   1.462       .  S
C461        C676   1.480   1_565  S
C464        C465   1.549       .  S
C464        C470   1.541       .  S
C464        C468   1.549       .  S
C464       C1146   1.556       .  S
C465        H472   1.084       .  S
C465        C466   1.372       .  D
C466        C467   1.545       .  S
C466        C666   1.510       .  S
C467        C471   1.543       .  S
C467        C469   1.539       .  S
C467        H473   1.106       .  S
C468        H474   1.083       .  S
C468        C469   1.371       .  D
C469        C699   1.492       .  S
C470        H475   1.086       .  S
C470        C471   1.371       .  D
C471        C706   1.501       .  S
C476        C477   1.536       .  S
C476        C482   1.550       .  S
C476        C480   1.545       .  S
C476        C669   1.545       .  S
C477        H484   1.086       .  S
C477        C478   1.367       .  D
C478        C479   1.542       .  S
C478        C578   1.491       .  S
C479        C483   1.540       .  S
C479        C481   1.536       .  S
C479        H485   1.109       .  S
C480        H486   1.086       .  S
C480        C481   1.372       .  D
C481       C1019   1.490       .  S
C482        H487   1.083       .  S
C482        C483   1.366       .  D
C483        C656   1.487   1_554  S
C488        C489   1.554       .  S
C488        C494   1.540       .  S
C488        C492   1.540       .  S
C488        C646   1.554   1_655  S
C489        H496   1.078       .  S
C489        C490   1.377       .  D
C490        C491   1.545       .  S
C490        C659   1.502       .  S
C491        C495   1.549       .  S
C491        C493   1.533       .  S
C491        H497   1.109       .  S
C492        H498   1.087   1_655  S
C492        C493   1.364       .  D
C493        C689   1.486       .  S
C494        H499   1.086       .  S
C494        C495   1.369       .  D
C495        C739   1.501       .  S
C500        C501   1.548       .  S
C500        C506   1.525       .  S
C500        C504   1.553       .  S
C500       C1199   1.551       .  S
C501        H508   1.082       .  S
C501        C502   1.373       .  D
C502        C503   1.545       .  S
C502        C554   1.493   1_565  S
C503        C507   1.541       .  S
C503        C505   1.546       .  S
C503        H509   1.110   1_565  S
C504        H510   1.083       .  S
C504        C505   1.379       .  D
C505        C649   1.506       .  S
C506        H511   1.088       .  S
C506        C507   1.357       .  D
C507        C679   1.482       .  S
C512        C513   1.543   1_655  S
C512        C518   1.535       .  S
C512        C516   1.541   1_655  S
C512        C879   1.529       .  S
C513        H520   1.086   1_455  S
C513        C514   1.363       .  D
C514        C515   1.526       .  S
C514        C756   1.483       .  S
C515        C519   1.534       .  S
C515        C517   1.544       .  S
C515        H521   1.104       .  S
C516        H522   1.080       .  S
C516        C517   1.371       .  D
C517        C636   1.491       .  S
C518        H523   1.086       .  S
C518        C519   1.364   1_655  D
C519        C626   1.476       .  S
In524       O526   2.228       .  S
In524       O527   2.228       .  S
In524       O535   2.267       .  S
In524       O529   2.213   1_565  S
In524       O531   2.264   1_565  S
In524       O532   2.222       .  S
In524       O533   2.190   1_565  S
In524       O536   2.251       .  S
C525        O531   1.262       .  A
C525        O533   1.257       .  A
C525        C919   1.460       .  S
O526        C534   1.257       .  A
O527        C534   1.262       .  A
C528        O535   1.266   1_545  A
C528        O529   1.256       .  A
C528       C1066   1.478       .  S
C530        O532   1.259       .  A
C530        O536   1.267       .  A
C530        C619   1.479       .  S
C534        C809   1.467       .  S
C537        C538   1.545       .  S
C537        C543   1.550       .  S
C537        C541   1.549       .  S
C537       C1309   1.557       .  S
C538        H545   1.086       .  S
C538        C539   1.372       .  D
C539        C540   1.545       .  S
C539        C829   1.509       .  S
C540        C544   1.544       .  S
C540        C542   1.527       .  S
C540        H546   1.111       .  S
C541        H547   1.086       .  S
C541        C542   1.368       .  D
C542        C639   1.467       .  S
C543        H548   1.085       .  S
C543        C544   1.375       .  D
C544        C609   1.506       .  S
C549        C550   1.544       .  S
C549        C555   1.546       .  S
C549        C553   1.539       .  S
C549        C606   1.555       .  S
C550        H557   1.086       .  S
C550        C551   1.368       .  D
C551        C552   1.533       .  S
C551       C1119   1.485       .  S
C552        C556   1.548       .  S
C552        C554   1.549       .  S
C552        H558   1.110       .  S
C553        H559   1.082       .  S
C553        C554   1.364       .  D
C555        H560   1.086       .  S
C555        C556   1.381       .  D
C556        C596   1.511       .  S
C561        C562   1.536       .  S
C561        C567   1.539       .  S
C561        C565   1.566       .  S
C561        C589   1.563   1_455  S
C562        H569   1.088   1_455  S
C562        C563   1.362       .  D
C563        C564   1.537       .  S
C563        C629   1.482       .  S
C564        C568   1.554       .  S
C564        C566   1.554       .  S
C564        H570   1.102       .  S
C565        H571   1.077       .  S
C565        C566   1.388       .  D
C566        C599   1.535       .  S
C567        H572   1.085       .  S
C567        C568   1.371       .  D
C568        C859   1.522       .  S
C573        C574   1.554       .  S
C573        C579   1.523       .  S
C573        C577   1.551   1_545  S
C573       C1356   1.554       .  S
C574        H581   1.085       .  S
C574        C575   1.380       .  D
C575        C576   1.547   1_545  S
C575        C586   1.508       .  S
C576        C580   1.539       .  S
C576        C578   1.543       .  S
C576        H582   1.111       .  S
C577        H583   1.083       .  S
C577        C578   1.373       .  D
C579        H584   1.088       .  S
C579        C580   1.356   1_545  D
C580        C616   1.476       .  S
C585        C586   1.409       .  A
C585        C590   1.416       .  A
C585        H592   1.083   1_545  S
C586        C587   1.404       .  A
C587        C588   1.406       .  A
C587        F594   1.357       .  S
C588        C589   1.416       .  A
C588        H593   1.083       .  S
C589        C590   1.421       .  A
C590        F591   1.353   1_545  S
C595        C596   1.401       .  A
C595        C600   1.400       .  A
C595        H602   1.083       .  S
C596        C597   1.410       .  A
C597        C598   1.416       .  A
C597        F604   1.357       .  S
C598        C599   1.418   1_556  A
C598        H603   1.081       .  S
C599        C600   1.423   1_554  A
C600        F601   1.351   1_556  S
C605        C606   1.419       .  A
C605        C610   1.412       .  A
C605        H612   1.077       .  S
C606        C607   1.414       .  A
C607        C608   1.403       .  A
C607        F614   1.358       .  S
C608        C609   1.406       .  A
C608        H613   1.082       .  S
C609        C610   1.404       .  A
C610        F611   1.357       .  S
C615        C616   1.399       .  A
C615        C620   1.398       .  A
C615        H622   1.083       .  S
C616        C617   1.408       .  A
C617        C618   1.396       .  A
C617        F624   1.358       .  S
C618        C619   1.403       .  A
C618        H623   1.083       .  S
C619        C620   1.412       .  A
C620        F621   1.357       .  S
C625        C626   1.398       .  A
C625        C630   1.391   1_556  A
C625        H632   1.084       .  S
C626        C627   1.408   1_556  A
C627        C628   1.403       .  A
C627        F634   1.357       .  S
C628        C629   1.401       .  A
C628        H633   1.083       .  S
C629        C630   1.411       .  A
C630        F631   1.358   1_554  S
C635        C636   1.413       .  A
C635        C640   1.394       .  A
C635        H642   1.081       .  S
C636        C637   1.408       .  A
C637        C638   1.394       .  A
C637        F644   1.356       .  S
C638        C639   1.399       .  A
C638        H643   1.079       .  S
C639        C640   1.397       .  A
C640        F641   1.358       .  S
C645        C646   1.414       .  A
C645        C650   1.403       .  A
C645        H652   1.084       .  S
C646        C647   1.419       .  A
C647        C648   1.411       .  A
C647        F654   1.353       .  S
C648        C649   1.408       .  A
C648        H653   1.083       .  S
C649        C650   1.407       .  A
C650        F651   1.357       .  S
C655        C656   1.400       .  A
C655        C660   1.405       .  A
C655        H662   1.083   1_556  S
C656        C657   1.406       .  A
C657        C658   1.400       .  A
C657        F664   1.357       .  S
C658        C659   1.406       .  A
C658        H663   1.082       .  S
C659        C660   1.417       .  A
C660        F661   1.356       .  S
C665        C666   1.407       .  A
C665        C670   1.409       .  A
C665        H672   1.083       .  S
C666        C667   1.412       .  A
C667        C668   1.399       .  A
C667        F674   1.349       .  S
C668        C669   1.407       .  A
C668        H673   1.079       .  S
C669        C670   1.416       .  A
C670        F671   1.357       .  S
C675        C676   1.408   1_565  A
C675        C680   1.400       .  A
C675        H682   1.083       .  S
C676        C677   1.404       .  A
C677        C678   1.397       .  A
C677        F684   1.358       .  S
C678        C679   1.408   1_545  A
C678        H683   1.083       .  S
C679        C680   1.403       .  A
C680        F681   1.357       .  S
C685        C686   1.402       .  A
C685        C690   1.393       .  A
C685        H692   1.086   1_655  S
C686        C687   1.403       .  A
C687        C688   1.401       .  A
C687        F694   1.358       .  S
C688        C689   1.409       .  A
C688        H693   1.088       .  S
C689        C690   1.405       .  A
C690        F691   1.357   1_655  S
C695        C696   1.408       .  A
C695        C700   1.397       .  A
C695        H702   1.081       .  S
C696        C697   1.411       .  A
C697        C698   1.394       .  A
C697        F704   1.354       .  S
C698        C699   1.404       .  A
C698        H703   1.081       .  S
C699        C700   1.409       .  A
C700        F701   1.357       .  S
C705        C706   1.406       .  A
C705        C710   1.410       .  A
C705        H712   1.082       .  S
C706        C707   1.410       .  A
C707        C708   1.406       .  A
C707        F714   1.357       .  S
C708        C709   1.406       .  A
C708        H713   1.083       .  S
C709        C710   1.410       .  A
C710        F711   1.357       .  S
C715        C716   1.414       .  A
C715        C720   1.401       .  A
C715        H722   1.084       .  S
C716        C717   1.418       .  A
C717        C718   1.407       .  A
C717        F724   1.352       .  S
C718        C719   1.403       .  A
C718        H723   1.084       .  S
C719        C720   1.404       .  A
C720        F721   1.358       .  S
C725        C726   1.408       .  A
C725        C730   1.397       .  A
C725        H732   1.079       .  S
C726        C727   1.416       .  A
C727        C728   1.412       .  A
C727        F734   1.356       .  S
C728        C729   1.409       .  A
C728        H733   1.083       .  S
C729        C730   1.412       .  A
C730        F731   1.357       .  S
C735        C736   1.411       .  A
C735        C740   1.412       .  A
C735        H742   1.082       .  S
C736        C737   1.414       .  A
C737        C738   1.408       .  A
C737        F744   1.357       .  S
C738        C739   1.405       .  A
C738        H743   1.083       .  S
C739        C740   1.408       .  A
C740        F741   1.357       .  S
C745        C746   1.412       .  A
C745        C750   1.403       .  A
C745        H752   1.079       .  S
C746        C747   1.413       .  A
C747        C748   1.407       .  A
C747        F754   1.356       .  S
C748        C749   1.412       .  A
C748        H753   1.082       .  S
C749        C750   1.412       .  A
C750        F751   1.356       .  S
C755        C756   1.404       .  A
C755        C760   1.396   1_556  A
C755        H762   1.083       .  S
C756        C757   1.409       .  A
C757        C758   1.393       .  A
C757        F764   1.355       .  S
C758        C759   1.399       .  A
C758        H763   1.083       .  S
C759        C760   1.406   1_556  A
C760        F761   1.357       .  S
C765        C766   1.413       .  A
C765        C770   1.397       .  A
C765        H772   1.077       .  S
C766        C767   1.410   1_554  A
C767        C768   1.394       .  A
C767        F774   1.358       .  S
C768        C769   1.401   1_556  A
C768        H773   1.083       .  S
C769        C770   1.399       .  A
C770        F771   1.358       .  S
C775        C776   1.403       .  A
C775        C780   1.399       .  A
C775        H782   1.083       .  S
C776        C777   1.413       .  A
C777        C778   1.402       .  A
C777        F784   1.357       .  S
C778        C779   1.400       .  A
C778        H783   1.084       .  S
C779        C780   1.407       .  A
C780        F781   1.358       .  S
C785        C786   1.397       .  A
C785        C790   1.391       .  A
C785        H792   1.083       .  S
C786        C787   1.409       .  A
C787        C788   1.401       .  A
C787        F794   1.357       .  S
C788        C789   1.399       .  A
C788        H793   1.083       .  S
C789        C790   1.412       .  A
C790        F791   1.358       .  S
C795        C796   1.411       .  A
C795        C800   1.393       .  A
C795        H802   1.082       .  S
C796        C797   1.420       .  A
C797        C798   1.394       .  A
C797        F804   1.353       .  S
C798        C799   1.395       .  A
C798        H803   1.084       .  S
C799        C800   1.399       .  A
C800        F801   1.358       .  S
C805        C806   1.408       .  A
C805        C810   1.397       .  A
C805        H812   1.082       .  S
C806        C807   1.410       .  A
C807        C808   1.389       .  A
C807        F814   1.354       .  S
C808        C809   1.398       .  A
C808        H813   1.083       .  S
C809        C810   1.406       .  A
C810        F811   1.358       .  S
C815        C816   1.402       .  A
C815        C820   1.394       .  A
C815        H822   1.082       .  S
C816        C817   1.415       .  A
C817        C818   1.393       .  A
C817        F824   1.358       .  S
C818        C819   1.394       .  A
C818        H823   1.083       .  S
C819        C820   1.402       .  A
C820        F821   1.357       .  S
C825        C826   1.410       .  A
C825        C830   1.409       .  A
C825        H832   1.082       .  S
C826        C827   1.414       .  A
C827        C828   1.415       .  A
C827        F834   1.357       .  S
C828        C829   1.408       .  A
C828        H833   1.083       .  S
C829        C830   1.409       .  A
C830        F831   1.357       .  S
C835        C836   1.402       .  A
C835        C840   1.404       .  A
C835        H842   1.083       .  S
C836        C837   1.405       .  A
C837        C838   1.408       .  A
C837        F844   1.358       .  S
C838        C839   1.415       .  A
C838        H843   1.077       .  S
C839        C840   1.418       .  A
C840        F841   1.357       .  S
C845        C846   1.413       .  A
C845        C850   1.409       .  A
C845        H852   1.083       .  S
C846        C847   1.410       .  A
C847        C848   1.409       .  A
C847        F854   1.357       .  S
C848        C849   1.407       .  A
C848        H853   1.083       .  S
C849        C850   1.404       .  A
C850        F851   1.357       .  S
C855        C856   1.410       .  A
C855        C860   1.409       .  A
C855        H862   1.079       .  S
C856        C857   1.415       .  A
C857        C858   1.419       .  A
C857        F864   1.357       .  S
C858        C859   1.413       .  A
C858        H863   1.083       .  S
C859        C860   1.412       .  A
C860        F861   1.357       .  S
C865        C866   1.413       .  A
C865        C870   1.409       .  A
C865        H872   1.079       .  S
C866        C867   1.414       .  A
C867        C868   1.409       .  A
C867        F874   1.357       .  S
C868        C869   1.414       .  A
C868        H873   1.082       .  S
C869        C870   1.413       .  A
C870        F871   1.356       .  S
C875        C876   1.399       .  A
C875        C880   1.397       .  A
C875        H882   1.084       .  S
C876        C877   1.401       .  A
C877        C878   1.395       .  A
C877        F884   1.358       .  S
C878        C879   1.412       .  A
C878        H883   1.082       .  S
C879        C880   1.419       .  A
C880        F881   1.353       .  S
C885        C886   1.403       .  A
C885        C890   1.393       .  A
C885        H892   1.083       .  S
C886        C887   1.405       .  A
C887        C888   1.399       .  A
C887        F894   1.357       .  S
C888        C889   1.406       .  A
C888        H893   1.083       .  S
C889        C890   1.407       .  A
C890        F891   1.357       .  S
C895        C896   1.407       .  A
C895        C900   1.399       .  A
C895        H902   1.084       .  S
C896        C897   1.401       .  A
C897        C898   1.397       .  A
C897        F904   1.357       .  S
C898        C899   1.408       .  A
C898        H903   1.083       .  S
C899        C900   1.404       .  A
C900        F901   1.357       .  S
C905        C906   1.402       .  A
C905        C910   1.396       .  A
C905        H912   1.084   1_455  S
C906        C907   1.402       .  A
C907        C908   1.397       .  A
C907        F914   1.357       .  S
C908        C909   1.405       .  A
C908        H913   1.081       .  S
C909        C910   1.409       .  A
C910        F911   1.358   1_455  S
C915        C916   1.412       .  A
C915        C920   1.400       .  A
C915        H922   1.079       .  S
C916        C917   1.414       .  A
C917        C918   1.388       .  A
C917        F924   1.358       .  S
C918        C919   1.396       .  A
C918        H923   1.085       .  S
C919        C920   1.401       .  A
C920        F921   1.358       .  S
C925        C926   1.402       .  A
C925        C930   1.392       .  A
C925        H932   1.083       .  S
C926        C927   1.402       .  A
C927        C928   1.392       .  A
C927        F934   1.358       .  S
C928        C929   1.405       .  A
C928        H933   1.083       .  S
C929        C930   1.405       .  A
C930        F931   1.357   1_455  S
C935        C936   1.397       .  A
C935        C940   1.395       .  A
C935        H942   1.081       .  S
C936        C937   1.401       .  A
C937        C938   1.393       .  A
C937        F944   1.357       .  S
C938        C939   1.403       .  A
C938        H943   1.081       .  S
C939        C940   1.411       .  A
C940        F941   1.357       .  S
C945        C946   1.411       .  A
C945        C950   1.409       .  A
C945        H952   1.079       .  S
C946        C947   1.412       .  A
C947        C948   1.405       .  A
C947        F954   1.358       .  S
C948        C949   1.413       .  A
C948        H953   1.083       .  S
C949        C950   1.418       .  A
C950        F951   1.354       .  S
C955        C956   1.415       .  A
C955        C960   1.401       .  A
C955        H962   1.083       .  S
C956        C957   1.421       .  A
C957        C958   1.407       .  A
C957        F964   1.352       .  S
C958        C959   1.403       .  A
C958        H963   1.084       .  S
C959        C960   1.401       .  A
C960        F961   1.357       .  S
C965        C966   1.405       .  A
C965        C970   1.398       .  A
C965        H972   1.082       .  S
C966        C967   1.405       .  A
C967        C968   1.398       .  A
C967        F974   1.358       .  S
C968        C969   1.408       .  A
C968        H973   1.083       .  S
C969        C970   1.405       .  A
C970        F971   1.357       .  S
C975        C976   1.415       .  A
C975        C980   1.404       .  A
C975        H982   1.082       .  S
C976        C977   1.410       .  A
C977        C978   1.405       .  A
C977        F984   1.355       .  S
C978        C979   1.404       .  A
C978        H983   1.083       .  S
C979        C980   1.400       .  A
C980        F981   1.357       .  S
C985        C986   1.412       .  A
C985        C990   1.406       .  A
C985        H992   1.079       .  S
C986        C987   1.411       .  A
C987        C988   1.406       .  A
C987        F994   1.357       .  S
C988        C989   1.413       .  A
C988        H993   1.083       .  S
C989        C990   1.417       .  A
C990        F991   1.355       .  S
C995        C996   1.409       .  A
C995       C1000   1.398       .  A
C995       H1002   1.082       .  S
C996        C997   1.406       .  A
C997        C998   1.411       .  A
C997       F1004   1.357       .  S
C998        C999   1.416       .  A
C998       H1003   1.078       .  S
C999       C1000   1.411       .  A
C1000      F1001   1.358       .  S
C1005      C1006   1.402       .  A
C1005      C1010   1.395       .  A
C1005      H1012   1.083       .  S
C1006      C1007   1.413       .  A
C1007      C1008   1.400       .  A
C1007      F1014   1.358       .  S
C1008      C1009   1.400       .  A
C1008      H1013   1.084       .  S
C1009      C1010   1.406       .  A
C1010      F1011   1.358   1_565  S
C1015      C1016   1.397       .  A
C1015      C1020   1.395       .  A
C1015      H1022   1.083       .  S
C1016      C1017   1.409       .  A
C1017      C1018   1.397   1_556  A
C1017      F1024   1.358   1_556  S
C1018      C1019   1.404       .  A
C1018      H1023   1.083       .  S
C1019      C1020   1.413   1_554  A
C1020      F1021   1.353       .  S
C1025      C1026   1.401       .  A
C1025      C1030   1.397       .  A
C1025      H1032   1.082       .  S
C1026      C1027   1.402       .  A
C1027      C1028   1.393       .  A
C1027      F1034   1.356       .  S
C1028      C1029   1.402       .  A
C1028      H1033   1.080       .  S
C1029      C1030   1.407       .  A
C1030      F1031   1.358       .  S
C1035      C1036   1.408       .  A
C1035      C1040   1.394       .  A
C1035      H1042   1.080       .  S
C1036      C1037   1.413       .  A
C1037      C1038   1.395       .  A
C1037      F1044   1.356       .  S
C1038      C1039   1.399       .  A
C1038      H1043   1.084       .  S
C1039      C1040   1.399       .  A
C1040      F1041   1.356       .  S
C1045      C1046   1.411       .  A
C1045      C1050   1.404       .  A
C1045      H1052   1.080       .  S
C1046      C1047   1.415       .  A
C1047      C1048   1.412       .  A
C1047      F1054   1.357       .  S
C1048      C1049   1.415       .  A
C1048      H1053   1.083       .  S
C1049      C1050   1.419       .  A
C1050      F1051   1.354       .  S
C1055      C1056   1.414       .  A
C1055      C1060   1.409       .  A
C1055      H1062   1.077       .  S
C1056      C1057   1.419       .  A
C1057      C1058   1.407       .  A
C1057      F1064   1.357       .  S
C1058      C1059   1.402       .  A
C1058      H1063   1.083       .  S
C1059      C1060   1.408       .  A
C1060      F1061   1.357   1_545  S
C1065      C1066   1.400       .  A
C1065      C1070   1.398       .  A
C1065      H1072   1.084   1_545  S
C1066      C1067   1.409       .  A
C1067      C1068   1.395       .  A
C1067      F1074   1.358       .  S
C1068      C1069   1.405       .  A
C1068      H1073   1.083       .  S
C1069      C1070   1.413       .  A
C1070      F1071   1.354       .  S
C1075      C1076   1.408       .  A
C1075      C1080   1.411       .  A
C1075      H1082   1.083       .  S
C1076      C1077   1.404       .  A
C1077      C1078   1.411       .  A
C1077      F1084   1.357       .  S
C1078      C1079   1.415       .  A
C1078      H1083   1.082       .  S
C1079      C1080   1.411       .  A
C1080      F1081   1.357       .  S
C1085      C1086   1.408       .  A
C1085      C1090   1.405       .  A
C1085      H1092   1.078       .  S
C1086      C1087   1.415       .  A
C1087      C1088   1.403       .  A
C1087      F1094   1.357       .  S
C1088      C1089   1.411       .  A
C1088      H1093   1.083       .  S
C1089      C1090   1.420       .  A
C1090      F1091   1.351       .  S
C1095      C1096   1.406       .  A
C1095      C1100   1.413       .  A
C1095      H1102   1.083       .  S
C1096      C1097   1.415       .  A
C1097      C1098   1.397       .  A
C1097      F1104   1.357       .  S
C1098      C1099   1.407       .  A
C1098      H1103   1.082       .  S
C1099      C1100   1.422       .  A
C1100      F1101   1.355       .  S
C1105      C1106   1.400       .  A
C1105      C1110   1.399       .  A
C1105      H1112   1.084   1_565  S
C1106      C1107   1.406       .  A
C1107      C1108   1.394       .  A
C1107      F1114   1.358       .  S
C1108      C1109   1.402       .  A
C1108      H1113   1.083       .  S
C1109      C1110   1.412       .  A
C1110      F1111   1.358   1_565  S
C1115      C1116   1.404       .  A
C1115      C1120   1.396       .  A
C1115      H1122   1.083       .  S
C1116      C1117   1.407   1_545  A
C1117      C1118   1.402   1_565  A
C1117      F1124   1.357       .  S
C1118      C1119   1.404       .  A
C1118      H1123   1.080   1_545  S
C1119      C1120   1.408       .  A
C1120      F1121   1.358       .  S
C1125      C1126   1.403       .  A
C1125      C1130   1.395       .  A
C1125      H1132   1.082       .  S
C1126      C1127   1.408       .  A
C1127      C1128   1.396       .  A
C1127      F1134   1.358       .  S
C1128      C1129   1.402       .  A
C1128      H1133   1.083       .  S
C1129      C1130   1.406       .  A
C1130      F1131   1.356       .  S
C1135      C1136   1.408       .  A
C1135      C1140   1.394       .  A
C1135      H1142   1.080       .  S
C1136      C1137   1.418       .  A
C1137      C1138   1.391       .  A
C1137      F1144   1.355       .  S
C1138      C1139   1.394       .  A
C1138      H1143   1.085       .  S
C1139      C1140   1.401       .  A
C1140      F1141   1.356       .  S
C1145      C1146   1.410       .  A
C1145      C1150   1.403       .  A
C1145      H1152   1.081       .  S
C1146      C1147   1.417       .  A
C1147      C1148   1.415       .  A
C1147      F1154   1.356       .  S
C1148      C1149   1.414       .  A
C1148      H1153   1.081       .  S
C1149      C1150   1.416       .  A
C1150      F1151   1.357       .  S
C1155      C1156   1.409       .  A
C1155      C1160   1.408       .  A
C1155      H1162   1.083       .  S
C1156      C1157   1.415       .  A
C1157      C1158   1.412       .  A
C1157      F1164   1.355       .  S
C1158      C1159   1.404       .  A
C1158      H1163   1.083       .  S
C1159      C1160   1.410       .  A
C1160      F1161   1.358       .  S
C1165      C1166   1.413       .  A
C1165      C1170   1.407       .  A
C1165      H1172   1.077       .  S
C1166      C1167   1.419       .  A
C1167      C1168   1.409       .  A
C1167      F1174   1.358       .  S
C1168      C1169   1.405       .  A
C1168      H1173   1.083       .  S
C1169      C1170   1.409       .  A
C1170      F1171   1.357       .  S
C1175      C1176   1.406       .  A
C1175      C1180   1.397       .  A
C1175      H1182   1.080       .  S
C1176      C1177   1.405       .  A
C1177      C1178   1.398       .  A
C1177      F1184   1.358       .  S
C1178      C1179   1.408       .  A
C1178      H1183   1.083       .  S
C1179      C1180   1.403       .  A
C1180      F1181   1.357   1_556  S
C1185      C1186   1.406       .  A
C1185      C1190   1.407   1_556  A
C1185      H1192   1.083       .  S
C1186      C1187   1.404       .  A
C1187      C1188   1.410       .  A
C1187      F1194   1.357       .  S
C1188      C1189   1.415   1_556  A
C1188      H1193   1.082       .  S
C1189      C1190   1.411       .  A
C1190      F1191   1.357       .  S
C1195      C1196   1.412       .  A
C1195      C1200   1.405       .  A
C1195      H1202   1.083       .  S
C1196      C1197   1.418       .  A
C1197      C1198   1.411       .  A
C1197      F1204   1.355       .  S
C1198      C1199   1.412       .  A
C1198      H1203   1.079       .  S
C1199      C1200   1.415       .  A
C1200      F1201   1.357       .  S
C1205      C1206   1.402       .  A
C1205      C1210   1.402       .  A
C1205      H1212   1.078       .  S
C1206      C1207   1.411       .  A
C1207      C1208   1.417       .  A
C1207      F1214   1.357       .  S
C1208      C1209   1.415       .  A
C1208      H1213   1.081       .  S
C1209      C1210   1.416       .  A
C1210      F1211   1.356       .  S
C1215      C1216   1.410       .  A
C1215      C1220   1.405       .  A
C1215      H1222   1.076       .  S
C1216      C1217   1.409       .  A
C1217      C1218   1.410       .  A
C1217      F1224   1.357       .  S
C1218      C1219   1.415       .  A
C1218      H1223   1.082       .  S
C1219      C1220   1.413       .  A
C1220      F1221   1.356       .  S
C1225      C1226   1.397       .  A
C1225      C1230   1.393       .  A
C1225      H1232   1.084       .  S
C1226      C1227   1.401       .  A
C1227      C1228   1.396       .  A
C1227      F1234   1.358       .  S
C1228      C1229   1.413       .  A
C1228      H1233   1.081       .  S
C1229      C1230   1.417       .  A
C1230      F1231   1.355       .  S
C1235      C1236   1.404       .  A
C1235      C1240   1.395       .  A
C1235      H1242   1.083       .  S
C1236      C1237   1.406       .  A
C1237      C1238   1.391       .  A
C1237      F1244   1.357       .  S
C1238      C1239   1.402       .  A
C1238      H1243   1.084       .  S
C1239      C1240   1.403       .  A
C1240      F1241   1.358       .  S
C1245      C1246   1.398       .  A
C1245      C1250   1.395       .  A
C1245      H1252   1.084       .  S
C1246      C1247   1.406       .  A
C1247      C1248   1.396       .  A
C1247      F1254   1.358       .  S
C1248      C1249   1.401       .  A
C1248      H1253   1.083       .  S
C1249      C1250   1.411       .  A
C1250      F1251   1.358       .  S
C1255      C1256   1.402       .  A
C1255      C1260   1.397       .  A
C1255      H1262   1.083       .  S
C1256      C1257   1.406       .  A
C1257      C1258   1.396       .  A
C1257      F1264   1.358       .  S
C1258      C1259   1.406       .  A
C1258      H1263   1.082       .  S
C1259      C1260   1.410       .  A
C1260      F1261   1.353       .  S
C1265      C1266   1.403       .  A
C1265      C1270   1.387   1_556  A
C1265      H1272   1.083       .  S
C1266      C1267   1.414   1_556  A
C1267      C1268   1.396       .  A
C1267      F1274   1.351       .  S
C1268      C1269   1.395       .  A
C1268      H1273   1.082       .  S
C1269      C1270   1.408       .  A
C1270      F1271   1.358       .  S
C1275      C1276   1.412       .  A
C1275      C1280   1.396       .  A
C1275      H1282   1.078       .  S
C1276      C1277   1.409       .  A
C1277      C1278   1.391       .  A
C1277      F1284   1.358       .  S
C1278      C1279   1.400       .  A
C1278      H1283   1.084       .  S
C1279      C1280   1.399       .  A
C1280      F1281   1.358       .  S
C1285      C1286   1.401       .  A
C1285      C1290   1.394       .  A
C1285      H1292   1.084       .  S
C1286      C1287   1.401   1_556  A
C1287      C1288   1.395       .  A
C1287      F1294   1.355       .  S
C1288      C1289   1.403       .  A
C1288      H1293   1.084       .  S
C1289      C1290   1.405   1_554  A
C1290      F1291   1.357       .  S
C1295      C1296   1.400       .  A
C1295      C1300   1.391       .  A
C1295      H1302   1.083       .  S
C1296      C1297   1.406       .  A
C1297      C1298   1.393       .  A
C1297      F1304   1.356       .  S
C1298      C1299   1.410       .  A
C1298      H1303   1.080       .  S
C1299      C1300   1.416       .  A
C1300      F1301   1.352       .  S
C1305      C1306   1.414       .  A
C1305      C1310   1.411       .  A
C1305      H1312   1.081       .  S
C1306      C1307   1.416       .  A
C1307      C1308   1.409       .  A
C1307      F1314   1.356       .  S
C1308      C1309   1.411       .  A
C1308      H1313   1.083       .  S
C1309      C1310   1.417       .  A
C1310      F1311   1.356       .  S
C1315      C1316   1.409       .  A
C1315      C1320   1.409       .  A
C1315      H1322   1.083       .  S
C1316      C1317   1.415       .  A
C1317      C1318   1.410       .  A
C1317      F1324   1.356       .  S
C1318      C1319   1.404       .  A
C1318      H1323   1.083       .  S
C1319      C1320   1.411       .  A
C1320      F1321   1.357       .  S
C1325      C1326   1.403       .  A
C1325      C1330   1.405       .  A
C1325      H1332   1.083       .  S
C1326      C1327   1.406       .  A
C1327      C1328   1.407       .  A
C1327      F1334   1.357       .  S
C1328      C1329   1.414       .  A
C1328      H1333   1.077       .  S
C1329      C1330   1.418       .  A
C1330      F1331   1.358       .  S
C1335      C1336   1.406   1_556  A
C1335      C1340   1.402       .  A
C1335      H1342   1.084       .  S
C1336      C1337   1.401       .  A
C1337      C1338   1.396   1_554  A
C1337      F1344   1.357       .  S
C1338      C1339   1.407       .  A
C1338      H1343   1.084       .  S
C1339      C1340   1.406       .  A
C1340      F1341   1.357       .  S
C1345      C1346   1.411       .  A
C1345      C1350   1.414       .  A
C1345      H1352   1.082       .  S
C1346      C1347   1.411       .  A
C1347      C1348   1.401       .  A
C1347      F1354   1.357       .  S
C1348      C1349   1.411       .  A
C1348      H1353   1.078       .  S
C1349      C1350   1.416       .  A
C1350      F1351   1.356       .  S
C1355      C1356   1.415       .  A
C1355      C1360   1.410       .  A
C1355      H1362   1.083       .  S
C1356      C1357   1.419       .  A
C1357      C1358   1.407       .  A
C1357      F1364   1.354       .  S
C1358      C1359   1.411       .  A
C1358      H1363   1.080       .  S
C1359      C1360   1.414       .  A
C1360      F1361   1.357       .  S
C1365      C1366   1.409       .  A
C1365      C1370   1.414       .  A
C1365      H1372   1.083       .  S
C1366      C1367   1.408       .  A
C1367      C1368   1.410       .  A
C1367      F1374   1.357       .  S
C1368      C1369   1.412       .  A
C1368      H1373   1.083       .  S
C1369      C1370   1.411       .  A
C1370      F1371   1.357       .  S
C1375      C1376   1.402       .  A
C1375      C1380   1.411       .  A
C1375      H1382   1.083       .  S
C1376      C1377   1.410       .  A
C1377      C1378   1.402       .  A
C1377      F1384   1.357       .  S
C1378      C1379   1.411       .  A
C1378      H1383   1.083       .  S
C1379      C1380   1.426       .  A
C1380      F1381   1.352       .  S
C1385      C1386   1.402       .  A
C1385      C1390   1.392       .  A
C1385      H1392   1.083       .  S
C1386      C1387   1.403       .  A
C1387      C1388   1.395       .  A
C1387      F1394   1.358       .  S
C1388      C1389   1.406       .  A
C1388      H1393   1.083       .  S
C1389      C1390   1.405       .  A
C1390      F1391   1.357       .  S
C1395      C1396   1.410       .  A
C1395      C1400   1.397       .  A
C1395      H1402   1.081       .  S
C1396      C1397   1.419       .  A
C1397      C1398   1.391       .  A
C1397      F1404   1.356       .  S
C1398      C1399   1.395       .  A
C1398      H1403   1.084       .  S
C1399      C1400   1.402       .  A
C1400      F1401   1.357       .  S
C1405      C1406   1.402       .  A
C1405      C1410   1.395       .  A
C1405      H1412   1.083       .  S
C1406      C1407   1.413       .  A
C1407      C1408   1.400       .  A
C1407      F1414   1.357       .  S
C1408      C1409   1.400       .  A
C1408      H1413   1.083       .  S
C1409      C1410   1.407       .  A
C1410      F1411   1.358       .  S
C1415      C1416   1.405       .  A
C1415      C1420   1.400       .  A
C1415      H1422   1.083       .  S
C1416      C1417   1.408       .  A
C1417      C1418   1.402       .  A
C1417      F1424   1.357       .  S
C1418      C1419   1.405       .  A
C1418      H1423   1.080       .  S
C1419      C1420   1.409       .  A
C1420      F1421   1.357       .  S
C1425      C1426   1.397       .  A
C1425      C1430   1.389       .  A
C1425      H1432   1.084       .  S
C1426      C1427   1.410       .  A
C1427      C1428   1.397       .  A
C1427      F1434   1.357       .  S
C1428      C1429   1.397       .  A
C1428      H1433   1.083       .  S
C1429      C1430   1.410       .  A
C1430      F1431   1.358       .  S
C1435      C1436   1.410       .  A
C1435      C1440   1.394       .  A
C1435      H1442   1.077       .  S
C1436      C1437   1.411   1_554  A
C1437      C1438   1.391       .  A
C1437      F1444   1.358       .  S
C1438      C1439   1.400   1_556  A
C1438      H1443   1.084       .  S
C1439      C1440   1.403       .  A
C1440      F1441   1.358       .  S
C1445      C1446   1.407       .  A
C1445      C1450   1.392       .  A
C1445      H1452   1.081       .  S
C1446      C1447   1.407       .  A
C1447      C1448   1.394       .  A
C1447      F1454   1.357       .  S
C1448      C1449   1.403       .  A
C1448      H1453   1.084       .  S
C1449      C1450   1.402       .  A
C1450      F1451   1.358       .  S
C1455      C1456   1.392       .  A
C1455      C1460   1.393       .  A
C1455      H1462   1.084       .  S
C1456      C1457   1.403       .  A
C1457      C1458   1.395       .  A
C1457      F1464   1.357       .  S
C1458      C1459   1.404       .  A
C1458      H1463   1.083       .  S
C1459      C1460   1.415       .  A
C1460      F1461   1.351       .  S
