geometry optimzed in LAMMPS
_audit_creation_date              2020-11-30 
_audit_creation_method            'lammps2cif' 
_symmetry_space_group_name_H-M    'P1' 
_symmetry_Int_Tables_number       1 
_symmetry_cell_setting            triclinic 
loop_ 
_symmetry_equiv_pos_as_xyz 
  x,y,z 
_cell_length_a                    34.08294281 
_cell_length_b                    36.21099791107695 
_cell_length_c                    36.36125102820055 
_cell_angle_alpha                 90.37099780870484 
_cell_angle_beta                  90.4515599939117 
_cell_angle_gamma                 89.38494464397539 
loop_ 
_atom_site_label 
_atom_site_type_symbol 
_atom_site_fract_x 
_atom_site_fract_y 
_atom_site_fract_z 
_atom_site_charge 
Zr1        Zr  0.81472275  0.77673270  0.78213609     2.17500
O2          O  0.88009198  0.80326211  0.77856909    -0.50800
O3          O  0.80190068  0.79276126  0.84585660    -0.74000
O4          O  0.81263019  0.84334549  0.77989667    -0.80800
O5          O  0.86251117  0.68342572  0.80343205    -0.82600
O6          O  0.76493949  0.86129796  0.73957478    -0.78200
O7          O  0.86842176  0.74534646  0.81059093    -0.89800
O8          O  0.74070080  0.77306377  0.85978948    -0.75800
O9          O  0.74697202  0.79166253  0.78446536    -0.85300
O10         O  0.78458466  0.72422233  0.80829006    -0.85000
O11         O  0.79767037  0.78949065  0.71951642    -0.71700
O12         O  0.83132085  0.72610651  0.74219303    -0.83900
Zr13       Zr  0.71144878  0.70022865  0.70770103     2.26400
Zr14       Zr  0.72909677  0.80406782  0.72215291     2.06300
Zr15       Zr  0.80027070  0.67352843  0.76855284     2.10000
Zr16       Zr  0.71634214  0.73833130  0.80876150     1.78800
O17         O  0.84519199  0.63200343  0.73642118    -0.92700
O18         O  0.66396890  0.78145218  0.82545457    -0.40500
O19         O  0.73101472  0.68717326  0.76972845    -0.77100
O20         O  0.69616278  0.75151309  0.74760056    -0.95800
O21         O  0.74214584  0.75269070  0.68156818    -0.89100
O22         O  0.77970189  0.68449548  0.70590884    -0.91900
C23         C  0.77251399  0.78981956  0.86737904     1.01800
C24         C  0.88065075  0.71230058  0.81552201     1.14700
C25         C  0.79361526  0.86814310  0.76206853     1.05500
O26         O  0.68291495  0.84775825  0.74959785    -0.94100
O27         O  0.66602562  0.79550812  0.69109792    -0.89800
O28         O  0.65363441  0.73396573  0.68601759    -0.83000
C29         C  0.64411078  0.76812908  0.68202386     1.12200
O30         O  0.87422863  0.76492716  0.67085591    -0.96100
Zr31       Zr  0.81005532  0.73737785  0.68010192     1.88900
O32         O  0.72485235  0.68007874  0.64541412    -0.72700
O33         O  0.73187820  0.83882235  0.66518061    -0.52000
O34         O  0.80555572  0.78494882  0.63303960    -0.96700
O35         O  0.86037508  0.69358190  0.65970721    -0.53900
O36         O  0.78181370  0.70593485  0.62736967    -0.73200
C37         C  0.75118317  0.68643969  0.62149156     0.99100
O38         O  0.64777365  0.67202408  0.69566445    -0.62000
O39         O  0.80133702  0.63491787  0.82328933    -0.56900
O40         O  0.70708809  0.63615671  0.72665889    -0.93500
O41         O  0.75900716  0.61855672  0.76214190    -0.92000
O42         O  0.71826751  0.69530429  0.85993395    -0.92300
O43         O  0.65418903  0.70634358  0.81438586    -0.91100
C44         C  0.72612258  0.61213561  0.74574195     1.18000
H45         H  0.79427913  0.71963824  0.83289426     0.33900
H46         H  0.66829151  0.75600322  0.74910656     0.44800
H47         H  0.78417969  0.66260525  0.69113457     0.38300
H48         H  0.81226851  0.81031710  0.71069712     0.34800
H49         H  0.65846784  0.77615230  0.85158113     0.26500
H50         H  0.71610226  0.86141470  0.67011362     0.32500
H51         H  0.78100151  0.77977787  0.61930874     0.38400
H52         H  0.72759300  0.67172981  0.84896857     0.32900
H53         H  0.82689621  0.62167716  0.82270428     0.31700
H54         H  0.85858536  0.61795564  0.75623336     0.33400
H55         H  0.86305311  0.69802759  0.63300274     0.32400
H56         H  0.64623784  0.70056353  0.78875105     0.36400
H57         H  0.65298716  0.65015119  0.67987742     0.29100
H58         H  0.88174545  0.82151767  0.79891317     0.33300
H59         H  0.87803424  0.76558763  0.64389024     0.36200
H60         H  0.80357545  0.65230540  0.84430491     0.28800
H61         H  0.63878988  0.66203178  0.71941834     0.41700
H62         H  0.66266267  0.83216574  0.76089785     0.31700
H63         H  0.67658380  0.80596420  0.82596679     0.39300
H64         H  0.84801959  0.66902767  0.66114061     0.31200
H65         H  0.75925280  0.84754738  0.66388417     0.31300
H66         H  0.87999371  0.81809360  0.75578415     0.31500
C67         C  0.88902146  0.00324636  0.79191974     0.87000
C68         C  0.86503644  0.96740890  0.78879744    -0.53200
C69         C  0.84546681  0.96305672  0.75579176     0.09900
C70         C  0.85204641  0.99552925  0.72910419     0.20900
C71         C  0.91632369  0.00258554  0.75809563    -0.54000
C72         C  0.89690639  0.99903803  0.72499433     0.10000
C73         C  0.85905694  0.03411351  0.78360606    -0.53500
C74         C  0.83980762  0.03031017  0.75076808     0.10600
H75         H  0.86452959  0.94716036  0.81063828     0.15100
H76         H  0.83617695  0.99259183  0.70245094     0.00800
H77         H  0.94772523  0.00671846  0.76035432     0.15400
H78         H  0.85488157  0.05807638  0.80133825     0.15200
Zr79       Zr  0.78771380  0.20042668  0.70709921     2.17500
O80         O  0.85285274  0.17243789  0.70046571    -0.50800
O81         O  0.77582286  0.17840092  0.64508367    -0.74000
O82         O  0.79077481  0.13558623  0.72585538    -0.80800
O83         O  0.83068803  0.29640951  0.68826009    -0.82600
O84         O  0.73883054  0.12391764  0.76280270    -0.78200
O85         O  0.84536284  0.23492670  0.68818688    -0.89800
O86         O  0.71647074  0.20078076  0.62648405    -0.75800
O87         O  0.71972684  0.18523388  0.70495649    -0.85300
O88         O  0.75489644  0.25030967  0.67650319    -0.85000
O89         O  0.76868974  0.19400922  0.77024172    -0.71700
O90         O  0.80045923  0.25504157  0.74243680    -0.83900
Zr91       Zr  0.68005146  0.28508340  0.77304493     2.26400
Zr92       Zr  0.69967384  0.18063708  0.76773591     2.06300
Zr93       Zr  0.76616763  0.30465341  0.71260893     2.10000
Zr94       Zr  0.68705636  0.23562173  0.67560061     1.78800
O95         O  0.81064255  0.35140590  0.73647543    -0.92700
O96         O  0.63964781  0.18701519  0.66352185    -0.40500
O97         O  0.69800918  0.29113832  0.71002334    -0.77100
O98         O  0.66583556  0.23047494  0.73771578    -0.95800
O99         O  0.71267946  0.23489007  0.80306235    -0.89100
O100        O  0.74795326  0.29938374  0.77523393    -0.91900
C101        C  0.74833033  0.18256969  0.62126723     1.01800
C102        C  0.85387829  0.26900233  0.68283324     1.13100
C103        C  0.77077496  0.11430419  0.74661093     1.05500
O104        O  0.65349081  0.13976074  0.73683193    -0.94100
O105        O  0.64016449  0.19258951  0.80352361    -0.89800
O106        O  0.63036135  0.25472269  0.80850873    -0.83000
C107        C  0.62093407  0.22120105  0.81493121     1.12200
O108        O  0.84898488  0.22923609  0.81094478    -0.96100
Zr109      Zr  0.78055513  0.24881243  0.80454282     1.88900
O110        O  0.69587335  0.30844288  0.83380160    -0.72700
O111        O  0.69706642  0.14662648  0.82524673    -0.52000
O112        O  0.78928726  0.20269141  0.85251500    -0.96700
O113        O  0.82304626  0.29944863  0.82325686    -0.53900
O114        O  0.74665274  0.27399905  0.85655143    -0.73200
C115        C  0.71927786  0.29817938  0.85961579     0.99100
O116        O  0.61312739  0.30911226  0.76530636    -0.62000
O117        O  0.76226931  0.33109350  0.65128018    -0.56900
O118        O  0.67813613  0.35123285  0.75874570    -0.93500
O119        O  0.72998412  0.36223809  0.72159678    -0.92000
O120        O  0.68483415  0.27536166  0.62181612    -0.92300
O121        O  0.62244745  0.26220075  0.66288279    -0.91100
C122        C  0.69920012  0.37271720  0.73908214     1.18000
H123        H  0.76490442  0.25360740  0.65193123     0.33900
H124        H  0.63783831  0.22610818  0.73757499     0.44800
H125        H  0.75257034  0.32235714  0.78814525     0.38300
H126        H  0.78365341  0.17491808  0.78253152     0.34800
H127        H  0.62854086  0.19266220  0.63892877     0.26500
H128        H  0.68654378  0.12212050  0.81840926     0.32500
H129        H  0.76230105  0.19582686  0.85939804     0.38400
H130        H  0.67174112  0.26048438  0.60244455     0.32900
H131        H  0.73407938  0.33692034  0.64753539     0.31700
H132        H  0.80972798  0.37143849  0.71807840     0.33400
H133        H  0.80578351  0.31749934  0.83597829     0.32400
H134        H  0.61568257  0.27611926  0.68552355     0.36400
H135        H  0.61361184  0.32514319  0.74337194     0.29100
H136        H  0.84942384  0.15070537  0.68412502     0.33300
H137        H  0.85663069  0.23522031  0.83661288     0.36200
H138        H  0.77493045  0.35547360  0.65375233     0.28800
H139        H  0.59735528  0.28778025  0.75695414     0.41700
H140        H  0.62756644  0.15196242  0.73984009     0.31700
H141        H  0.65570148  0.16440490  0.65956205     0.39300
H142        H  0.83008729  0.31165157  0.79996998     0.31200
H143        H  0.72478594  0.14179121  0.83217545     0.31300
H144        H  0.85986822  0.16217445  0.72485903     0.31500
C145        C  0.64908530  0.53351653  0.73690559     0.87000
C146        C  0.62717902  0.53633862  0.77344591    -0.53200
C147        C  0.60115735  0.50835641  0.77920028     0.09900
C148        C  0.59937864  0.48014831  0.74702030     0.20900
C149        C  0.66834372  0.49488345  0.73705944    -0.54000
C150        C  0.64234136  0.46665484  0.74271669     0.10000
C151        C  0.61672662  0.53114608  0.70761098    -0.53500
C152        C  0.59088401  0.50303698  0.71201155     0.10600
H153        H  0.63338764  0.55794312  0.79336085     0.15100
H154        H  0.57827540  0.45742937  0.75127520     0.00800
H155        H  0.69971408  0.49079703  0.73404906     0.15400
H156        H  0.61484880  0.54992820  0.68444763     0.15200
C157        C  0.76645412  0.66616491  0.45184496     0.87000
C158        C  0.72685121  0.64709896  0.45016709    -0.53200
C159        C  0.71884074  0.62634706  0.48033192     0.09900
C160        C  0.75207120  0.62656680  0.50954327     0.20900
C161        C  0.76610889  0.68848136  0.48767587    -0.54000
C162        C  0.75889216  0.66787200  0.51804413     0.10000
C163        C  0.79677483  0.63541845  0.45857156    -0.53500
C164        C  0.78930863  0.61453539  0.48878497     0.10600
H165        H  0.70680413  0.65120488  0.42725097     0.15100
H166        H  0.74631916  0.60932243  0.53399278     0.00800
H167        H  0.77248468  0.71779612  0.48909835     0.15400
H168        H  0.82360188  0.63251893  0.44280219     0.15200
Zr169      Zr  0.69716465  0.80040606  0.20524137     2.17500
O170        O  0.63025354  0.82508078  0.20751925    -0.50800
O171        O  0.70895175  0.82558214  0.14392429    -0.74000
O172        O  0.69320224  0.86564041  0.22455720    -0.80800
O173        O  0.65467229  0.70640396  0.17874379    -0.82600
O174        O  0.74359152  0.87606472  0.26458428    -0.78200
O175        O  0.64129648  0.76819966  0.17831463    -0.89800
O176        O  0.76555023  0.79983750  0.12284167    -0.75800
O177        O  0.76481796  0.81630728  0.20375686    -0.85300
O178        O  0.72914714  0.75109445  0.17272238    -0.85000
O179        O  0.71719704  0.80444059  0.26892940    -0.71700
O180        O  0.68618943  0.74429989  0.23891803    -0.83900
Zr181      Zr  0.80736479  0.71637066  0.26666026     2.26400
Zr182      Zr  0.78550471  0.82011405  0.26689854     2.06300
Zr183      Zr  0.71918443  0.69515024  0.20637819     2.10000
Zr184      Zr  0.79670339  0.76669556  0.17183393     1.78800
O185        O  0.67238275  0.64955619  0.22708501    -0.92700
O186        O  0.84084757  0.81654257  0.15587401    -0.40500
O187        O  0.78734887  0.71001729  0.20383493    -0.77100
O188        O  0.81933511  0.77209714  0.23379353    -0.95800
O189        O  0.77527329  0.76451277  0.30024964    -0.89100
O190        O  0.74011384  0.70006593  0.26875743    -0.91900
C191        C  0.73494240  0.82012946  0.11897604     1.01800
C192        C  0.63237768  0.73438190  0.17157488     1.14700
C193        C  0.71196113  0.88626327  0.24754523     1.05500
O194        O  0.83027723  0.86431098  0.24024436    -0.94100
O195        O  0.84727238  0.80685411  0.30031046    -0.89800
O196        O  0.85925984  0.74484906  0.30166969    -0.83000
C197        C  0.86801746  0.77829243  0.30961362     1.12200
O198        O  0.64079107  0.76901019  0.31179455    -0.96100
Zr199      Zr  0.70811293  0.74818009  0.30156307     1.88900
O200        O  0.79850226  0.68924452  0.32619685    -0.72700
O201        O  0.78757719  0.85082922  0.32669522    -0.52000
O202        O  0.70358184  0.78774771  0.35588534    -0.96700
O203        O  0.66629298  0.69607262  0.31607286    -0.53900
O204        O  0.74355869  0.71603498  0.35000795    -0.73200
C205        C  0.77386675  0.69479229  0.35198714     0.99100
O206        O  0.87226565  0.69224607  0.25100126    -0.62000
O207        O  0.72693127  0.66588662  0.14631992    -0.56900
O208        O  0.80472759  0.65035061  0.25859446    -0.93500
O209        O  0.75397348  0.63614706  0.22007861    -0.92000
O210        O  0.79834162  0.72376776  0.11998885    -0.92300
O211        O  0.86339159  0.74525263  0.15978627    -0.91100
C212        C  0.78344974  0.62723789  0.24091240     1.18000
H213        H  0.71859435  0.74865139  0.14810235     0.33900
H214        H  0.84718833  0.77696266  0.23341172     0.44800
H215        H  0.73652981  0.67687437  0.28119141     0.38300
H216        H  0.70194928  0.82294334  0.28183896     0.34800
H217        H  0.84633546  0.81286420  0.12939003     0.26500
H218        H  0.79555661  0.87646958  0.32148421     0.32500
H219        H  0.73093330  0.79008660  0.36490889     0.38400
H220        H  0.80764780  0.73854938  0.09903716     0.32900
H221        H  0.70766992  0.64560881  0.14611985     0.31700
H222        H  0.67268008  0.63010609  0.20782427     0.33400
H223        H  0.68393728  0.67699979  0.32675440     0.32400
H224        H  0.86313121  0.71850160  0.16524487     0.36400
H225        H  0.86804242  0.67647266  0.22901267     0.29100
H226        H  0.62992204  0.84747347  0.19201634     0.33300
H227        H  0.63435959  0.76122801  0.33707970     0.36200
H228        H  0.71617715  0.68396769  0.12849678     0.28800
H229        H  0.88664935  0.71374752  0.24147749     0.41700
H230        H  0.85315457  0.84923735  0.23235312     0.31700
H231        H  0.82443692  0.83926016  0.15684212     0.39300
H232        H  0.65840948  0.68583862  0.29185206     0.31200
H233        H  0.75982606  0.85296144  0.33434741     0.31300
H234        H  0.62657089  0.83417731  0.23301921     0.31500
C235        C  0.74499756  0.84762039  0.95117784     0.87000
C236        C  0.78090445  0.87208105  0.95372383    -0.53200
C237        C  0.78460506  0.89054932  0.98631166     0.09900
C238        C  0.74950816  0.88510717  0.01237480     0.20900
C239        C  0.74645541  0.82335518  0.98549516    -0.54000
C240        C  0.74778681  0.84304302  0.01756455     0.10000
C241        C  0.71050907  0.87417344  0.95694298    -0.53500
C242        C  0.71293029  0.89393713  0.98888502     0.10600
H243        H  0.80150528  0.87418539  0.93128399     0.15100
H244        H  0.75158700  0.90126589  0.03837155     0.00800
H245        H  0.74572806  0.79337429  0.98452917     0.15400
H246        H  0.68674166  0.87780641  0.93715377     0.15200
C247        C  0.48415066  0.71538508  0.08303829     0.87000
C248        C  0.45287250  0.72068141  0.11267107    -0.53200
C249        C  0.45799608  0.75085885  0.13450313     0.09900
C250        C  0.49482254  0.77295768  0.12526365     0.20900
C251        C  0.48427856  0.75205090  0.06191110    -0.54000
C252        C  0.49020543  0.78231528  0.08422912     0.10000
C253        C  0.52323648  0.71453545  0.10434391    -0.53500
C254        C  0.52914686  0.74481343  0.12647869     0.10600
H255        H  0.42859407  0.70187076  0.11640621     0.15100
H256        H  0.49924484  0.79736158  0.14345376     0.00800
H257        H  0.48102907  0.75344150  0.03226241     0.15400
H258        H  0.54457523  0.69239204  0.10086003     0.15200
C259        C  0.34386096  0.96209387  0.74559801     0.87000
C260        C  0.36642642  0.96333417  0.78206144    -0.53200
C261        C  0.39084497  0.99295189  0.78616652     0.09900
C262        C  0.39067520  0.01856262  0.75183823     0.20900
C263        C  0.32236726  0.99945069  0.74321137    -0.54000
C264        C  0.34661213  0.02943834  0.74663284     0.10000
C265        C  0.37549197  0.96351274  0.71621139    -0.53500
C266        C  0.40036727  0.99252179  0.71874895     0.10600
H267        H  0.36147121  0.94309874  0.80330720     0.15100
H268        H  0.41059648  0.04250490  0.75459182     0.00800
H269        H  0.29072234  0.00152363  0.74049230     0.15400
H270        H  0.37831726  0.94257240  0.69478164     0.15200
C271        C  0.73510020  0.32612470  0.95915377     0.87000
C272        C  0.77263297  0.34842145  0.95494481    -0.53200
C273        C  0.78011697  0.37152083  0.98370543     0.09900
C274        C  0.74890797  0.37086354  0.01392727     0.20900
C275        C  0.73954718  0.30630630  0.99589834    -0.54000
C276        C  0.74597591  0.32993625  0.02485973     0.10000
C277        C  0.70258476  0.35456519  0.96560031    -0.53500
C278        C  0.71049672  0.37903904  0.99319045     0.10600
H279        H  0.79151714  0.34631562  0.93104863     0.15100
H280        H  0.75438041  0.39017887  0.03721754     0.00800
H281        H  0.73714020  0.27659879  0.99862488     0.15400
H282        H  0.67571934  0.35544066  0.94934713     0.15200
C283        C  0.24198114  0.65470589  0.04142247     0.87000
C284        C  0.27559894  0.62699420  0.03617421    -0.53200
C285        C  0.27248863  0.60579606  0.00510488     0.09900
C286        C  0.23618159  0.61504223  0.98132077     0.20900
C287        C  0.24205363  0.67753569  0.00622137    -0.54000
C288        C  0.23924717  0.65698757  0.97473256     0.10000
C289        C  0.20472684  0.63165498  0.03906724    -0.53500
C290        C  0.20144286  0.61086086  0.00778972     0.10600
H291        H  0.30127182  0.62586478  0.05366762     0.15100
H292        H  0.23430678  0.59797895  0.95591550     0.00800
H293        H  0.24539424  0.70734502  0.00615694     0.15400
H294        H  0.18307865  0.63119748  0.06084976     0.15200
C295        C  0.14855725  0.53251981  0.75448296     0.87000
C296        C  0.11928491  0.52399828  0.78488435    -0.53200
C297        C  0.09578415  0.49459530  0.77802311     0.09900
C298        C  0.10342720  0.47626455  0.73978784     0.20900
C299        C  0.17133784  0.49615501  0.74844150    -0.54000
C300        C  0.14779601  0.46634659  0.74085474     0.10000
C301        C  0.12330393  0.53747308  0.71985401    -0.53500
C302        C  0.10013527  0.50812982  0.71127439     0.10600
H303        H  0.11711170  0.54014143  0.81011661     0.15100
H304        H  0.08399693  0.45256611  0.73358234     0.00800
H305        H  0.20307411  0.49465601  0.75012406     0.15400
H306        H  0.12420387  0.56214620  0.70302953     0.15200
C307        C  0.73709406  0.15820316  0.45296375     0.87000
C308        C  0.70783652  0.12668569  0.45694310    -0.53200
C309        C  0.71192684  0.10731482  0.48864948     0.09900
C310        C  0.74611369  0.12011328  0.51307395     0.20900
C311        C  0.73231769  0.18129606  0.48807041    -0.54000
C312        C  0.73763080  0.16137162  0.51944102     0.10000
C313        C  0.77756897  0.13957481  0.45645191    -0.53500
C314        C  0.78238944  0.11937038  0.48806270     0.10600
H315        H  0.68418216  0.12148916  0.43741019     0.15100
H316        H  0.74945065  0.10358641  0.53854031     0.00800
H317        H  0.72540235  0.21065105  0.48815637     0.15400
H318        H  0.80028439  0.14307801  0.43608700     0.15200
C319        C  0.00499642  0.79150183  0.41220736     0.87000
C320        C  0.96786178  0.79179341  0.38837652    -0.53200
C321        C  0.96479344  0.76259473  0.36458062     0.09900
C322        C  0.99990275  0.73505752  0.36722477     0.20900
C323        C  0.00452184  0.75392560  0.43163501    -0.54000
C324        C  0.00251357  0.72432158  0.40812553     0.10000
C325        C  0.03879994  0.78845743  0.38454905    -0.53500
C326        C  0.03617402  0.75897702  0.36136218     0.10600
H327        H  0.94553853  0.81318065  0.39118676     0.15100
H328        H  0.99777784  0.71113450  0.34805575     0.00800
H329        H  0.00548942  0.75100339  0.46133837     0.15400
H330        H  0.06311363  0.80730177  0.38264111     0.15200
Zr331      Zr  0.30504706  0.71886680  0.22346076     2.17500
O332        O  0.37185444  0.69436711  0.22869768    -0.50800
O333        O  0.29299973  0.69390381  0.16195237    -0.74000
O334        O  0.30698043  0.65309413  0.23707266    -0.80800
O335        O  0.34844027  0.81261048  0.19621219    -0.82600
O336        O  0.25556477  0.63831707  0.27320916    -0.78200
O337        O  0.35915439  0.75050796  0.19651527    -0.89800
O338        O  0.23426309  0.71588263  0.14135817    -0.75800
O339        O  0.23773582  0.70387584  0.21790513    -0.85300
O340        O  0.27502766  0.76959049  0.19211555    -0.85000
O341        O  0.28473399  0.71096208  0.28580834    -0.71700
O342        O  0.31746559  0.77295383  0.26029468    -0.83900
Zr343      Zr  0.19560371  0.80006342  0.28514991     2.26400
Zr344      Zr  0.21665674  0.69584490  0.27987532     2.06300
Zr345      Zr  0.28607792  0.82370425  0.22889388     2.10000
Zr346      Zr  0.20739080  0.75529558  0.18781360     1.78800
O347        O  0.33382977  0.86693119  0.25371503    -0.92700
O348        O  0.15440397  0.71370227  0.17109235    -0.40500
O349        O  0.21772955  0.80967152  0.22371323    -0.77100
O350        O  0.18366908  0.74598928  0.24848867    -0.95800
O351        O  0.22658656  0.75007024  0.31666541    -0.89100
O352        O  0.26310848  0.81601117  0.29052541    -0.91900
C353        C  0.26545845  0.69644580  0.13774060     1.01800
C354        C  0.36908840  0.78350623  0.18855842     1.14700
C355        C  0.28719614  0.62980904  0.25574192     1.05500
O356        O  0.17533992  0.65030745  0.24950093    -0.94100
O357        O  0.15314923  0.70450577  0.30950197    -0.89800
O358        O  0.14188532  0.76659685  0.31184011    -0.83000
C359        C  0.13207965  0.73299991  0.31767399     1.12200
O360        O  0.35982147  0.74292677  0.33514618    -0.96100
Zr361      Zr  0.29373791  0.76583786  0.32167819     1.88900
O362        O  0.19990831  0.81888523  0.34891265    -0.72700
O363        O  0.21595986  0.66601988  0.33972571    -0.52000
O364        O  0.29612765  0.72254422  0.37275276    -0.96700
O365        O  0.33727275  0.81545472  0.34101651    -0.53900
O366        O  0.25727293  0.79507838  0.37098552    -0.73200
C367        C  0.22486658  0.81301225  0.37476332     0.99100
O368        O  0.13252325  0.82958710  0.27075808    -0.62000
O369        O  0.27787005  0.85687067  0.17120913    -0.56900
O370        O  0.19803035  0.86663518  0.27835479    -0.93500
O371        O  0.25019508  0.88191262  0.24285459    -0.92000
O372        O  0.21530403  0.79123353  0.13197993    -0.92300
O373        O  0.14787004  0.79058681  0.17420600    -0.91100
C374        C  0.21947703  0.89022079  0.26191752     1.18000
H375        H  0.28599999  0.77230852  0.16789406     0.33900
H376        H  0.15591436  0.74130446  0.24651254     0.44800
H377        H  0.26626078  0.83852514  0.30457254     0.38300
H378        H  0.29942389  0.69135713  0.29756289     0.34800
H379        H  0.15179111  0.71597896  0.14405472     0.26500
H380        H  0.20089104  0.64309810  0.33570721     0.32500
H381        H  0.26913224  0.72240139  0.38260247     0.38400
H382        H  0.19960783  0.77815024  0.11302898     0.32900
H383        H  0.29879598  0.87562721  0.17166949     0.31700
H384        H  0.33433113  0.88723097  0.23560932     0.33400
H385        H  0.32012299  0.83425267  0.35278589     0.32400
H386        H  0.13179926  0.78857179  0.19664511     0.36400
H387        H  0.13620680  0.84115231  0.24643753     0.29100
H388        H  0.37358892  0.67371504  0.21077273     0.33300
H389        H  0.36557300  0.75065511  0.36079358     0.36200
H390        H  0.28606081  0.83911307  0.15185974     0.28800
H391        H  0.11395877  0.80934835  0.26556134     0.41700
H392        H  0.16899452  0.63247797  0.26905264     0.31700
H393        H  0.16559182  0.68864947  0.17487492     0.39300
H394        H  0.34569743  0.82699071  0.31781587     0.31200
H395        H  0.24329271  0.65747174  0.34399724     0.31300
H396        H  0.37355856  0.68262828  0.25319161     0.31500
C397        C  0.24164629  0.84487002  0.47479821     0.87000
C398        C  0.28105478  0.86446451  0.47591935    -0.53200
C399        C  0.28742198  0.88538241  0.50673580     0.09900
C400        C  0.25333561  0.88388373  0.53450033     0.20900
C401        C  0.24075306  0.82217740  0.51003379    -0.54000
C402        C  0.24714273  0.84232621  0.54130244     0.10000
C403        C  0.21091170  0.87559060  0.48075799    -0.53500
C404        C  0.21677056  0.89572818  0.51209051     0.10600
H405        H  0.30218466  0.86110308  0.45397466     0.15100
H406        H  0.25799427  0.90060979  0.55983858     0.00800
H407        H  0.23526574  0.79267273  0.51027439     0.15400
H408        H  0.18609723  0.88108115  0.46272484     0.15200
C409        C  0.89270722  0.50816118  0.27005226     0.87000
C410        C  0.86860795  0.47310233  0.27412874    -0.53200
C411        C  0.84286947  0.46655000  0.24588310     0.09900
C412        C  0.84318497  0.49699643  0.21606992     0.20900
C413        C  0.91223772  0.50428869  0.23211396    -0.54000
C414        C  0.88628277  0.49844668  0.20375172     0.10000
C415        C  0.86254353  0.53946262  0.26513708    -0.53500
C416        C  0.83634978  0.53405241  0.23682026     0.10600
H417        H  0.87391593  0.45410569  0.29659082     0.15100
H418        H  0.82225409  0.49221753  0.19299418     0.00800
H419        H  0.94375225  0.50532110  0.22815690     0.15400
H420        H  0.86353551  0.56473622  0.28133523     0.15200
Zr421      Zr  0.76922083  0.30190067  0.20076985     2.17500
O422        O  0.76129337  0.35735081  0.16349870    -0.50800
O423        O  0.83629932  0.29248658  0.17963278    -0.74000
O424        O  0.79563993  0.35726282  0.22962515    -0.80800
O425        O  0.71387626  0.24876015  0.12483961    -0.82600
O426        O  0.79412864  0.34937101  0.29157170    -0.78200
O427        O  0.75265124  0.29831505  0.13643486    -0.89800
O428        O  0.85485992  0.23514552  0.19811368    -0.75800
O429        O  0.80357951  0.27536379  0.25147934    -0.85300
O430        O  0.77204192  0.23725217  0.18757831    -0.85000
O431        O  0.72998911  0.31774987  0.25319889    -0.71700
O432        O  0.70263273  0.28152797  0.19403882    -0.83900
Zr433      Zr  0.70044693  0.20564435  0.28541737     2.26400
Zr434      Zr  0.76400240  0.28964791  0.30404160     2.06300
Zr435      Zr  0.70566885  0.21622382  0.18247631     2.10000
Zr436      Zr  0.80560935  0.21085139  0.23854221     1.78800
O437        O  0.64137158  0.21648956  0.15279521    -0.92700
O438        O  0.86403963  0.21608806  0.27718097    -0.40500
O439        O  0.73961937  0.18897738  0.23336264    -0.77100
O440        O  0.76785785  0.22429431  0.29190879    -0.95800
O441        O  0.69719511  0.26997856  0.29846531    -0.89100
O442        O  0.66592447  0.23156032  0.23466046    -0.91900
C443        C  0.86050170  0.26514279  0.18044079     1.01800
C444        C  0.73252477  0.27759762  0.11491496     1.14700
C445        C  0.80165892  0.36842380  0.26273568     1.05500
O446        O  0.82627328  0.29451192  0.33696827    -0.94100
O447        O  0.76032473  0.25558723  0.36202528    -0.89800
O448        O  0.72206143  0.20636995  0.34869781    -0.83000
C449        C  0.74319275  0.22546171  0.37083542     1.12200
O450        O  0.65531488  0.35421674  0.21356165    -0.96100
Zr451      Zr  0.66407080  0.29645568  0.24690456     1.88900
O452        O  0.63476726  0.21999002  0.30759119    -0.72700
O453        O  0.73131147  0.33351290  0.34486849    -0.52000
O454        O  0.64605784  0.34758862  0.28746507    -0.96700
O455        O  0.60642142  0.29202232  0.20702786    -0.53900
O456        O  0.61483161  0.27726369  0.29022873    -0.73200
C457        C  0.61042118  0.24725122  0.30807025     0.99100
O458        O  0.68768932  0.14834748  0.31813412    -0.62000
O459        O  0.73312637  0.17215924  0.13836689    -0.56900
O460        O  0.68248030  0.14790157  0.25595271    -0.93500
O461        O  0.67933978  0.15452404  0.19402386    -0.92000
O462        O  0.82233621  0.15961171  0.19767493    -0.92300
O463        O  0.82107540  0.15367311  0.27073854    -0.91100
C464        C  0.67528713  0.13546599  0.22347727     1.18000
H465        H  0.78594058  0.23239260  0.16497568     0.33900
H466        H  0.78134394  0.21127992  0.31141777     0.44800
H467        H  0.64003754  0.22122519  0.23224720     0.38300
H468        H  0.72828901  0.34419310  0.25638608     0.34800
H469        H  0.88454929  0.20189730  0.26387987     0.26500
H470        H  0.71199638  0.31872494  0.35844940     0.32500
H471        H  0.67076856  0.35447972  0.30007785     0.38400
H472        H  0.79754445  0.15382877  0.18461989     0.32900
H473        H  0.71381317  0.17139816  0.11789983     0.31700
H474        H  0.64425432  0.19946372  0.13154452     0.33400
H475        H  0.59415081  0.26820089  0.21308417     0.32400
H476        H  0.79583032  0.14044916  0.27175387     0.36400
H477        H  0.71295101  0.14041136  0.32936020     0.29100
H478        H  0.78805139  0.36707925  0.16001729     0.33300
H479        H  0.62777182  0.36200400  0.21779314     0.36200
H480        H  0.75627912  0.18439551  0.12784326     0.28800
H481        H  0.67059955  0.15522146  0.33904604     0.41700
H482        H  0.83477676  0.26867909  0.34138882     0.31700
H483        H  0.87210227  0.24215922  0.27496107     0.39300
H484        H  0.61714945  0.28831220  0.18202971     0.31200
H485        H  0.75149675  0.33999113  0.36347292     0.31300
H486        H  0.74771655  0.37578960  0.17925365     0.31500
C487        C  0.59501777  0.00311126  0.29203215     0.87000
C488        C  0.61910773  0.03815011  0.28805211    -0.53200
C489        C  0.63825293  0.04137951  0.25556934     0.09900
C490        C  0.63202080  0.00820847  0.22927569     0.20900
C491        C  0.56767931  0.00260081  0.25780799    -0.54000
C492        C  0.58705646  0.00561381  0.22497242     0.10000
C493        C  0.62464421  0.97146691  0.28495361    -0.53500
C494        C  0.64385398  0.97351526  0.25198808     0.10600
H495        H  0.62093164  0.05906550  0.30958811     0.15100
H496        H  0.64788810  0.01032767  0.20282581     0.00800
H497        H  0.53608184  0.99983102  0.25899336     0.15400
H498        H  0.62844487  0.94837172  0.30360076     0.15200
C499        C  0.48364451  0.21335993  0.91684145     0.87000
C500        C  0.52060566  0.20985193  0.89327262    -0.53200
C501        C  0.52516216  0.23826092  0.86908761     0.09900
C502        C  0.49182954  0.26747080  0.87073158     0.20900
C503        C  0.48653217  0.25122092  0.93561536    -0.54000
C504        C  0.49098710  0.27982597  0.91136473     0.10000
C505        C  0.44991799  0.21724949  0.88902842    -0.53500
C506        C  0.45385809  0.24549627  0.86502571     0.10600
H507        H  0.54158131  0.18734719  0.89649294     0.15100
H508        H  0.49525052  0.29041969  0.85091232     0.00800
H509        H  0.48597989  0.25440318  0.96526186     0.15400
H510        H  0.42516483  0.19857638  0.88772349     0.15200
Zr511      Zr  0.19108772  0.28781890  0.70939557     2.17500
O512        O  0.13279915  0.32071074  0.68660276    -0.50800
O513        O  0.19956817  0.29945002  0.64429077    -0.74000
O514        O  0.18848803  0.35332308  0.72603153    -0.80800
O515        O  0.14550557  0.19726306  0.68687596    -0.82600
O516        O  0.24572589  0.36823604  0.75460454    -0.78200
O517        O  0.13013673  0.25454120  0.70735958    -0.89800
O518        O  0.26115947  0.28145920  0.62867414    -0.75800
O519        O  0.25926860  0.30090272  0.70577508    -0.85300
O520        O  0.22072402  0.23476248  0.68110560    -0.85000
O521        O  0.21160259  0.29903249  0.77189797    -0.71700
O522        O  0.17623065  0.23629978  0.74798519    -0.83900
Zr523      Zr  0.29662175  0.20634166  0.77945666     2.26400
Zr524      Zr  0.28072153  0.31035607  0.76800371     2.06300
Zr525      Zr  0.20715957  0.18347649  0.72017654     2.10000
Zr526      Zr  0.28894280  0.24740350  0.67901058     1.78800
O527        O  0.16076089  0.14393619  0.75126600    -0.92700
O528        O  0.34021926  0.29020247  0.66179144    -0.40500
O529        O  0.27593559  0.19574347  0.71717624    -0.77100
O530        O  0.31230877  0.25738268  0.74035013    -0.95800
O531        O  0.26700974  0.25921672  0.80710480    -0.89100
O532        O  0.22836478  0.19293985  0.78250605    -0.91900
C533        C  0.22799517  0.29675621  0.62164370     1.01800
C534        C  0.12167045  0.22492985  0.68973252     1.14700
C535        C  0.21198153  0.37675413  0.74075911     1.05500
O536        O  0.32819583  0.35057348  0.73931066    -0.94100
O537        O  0.34242745  0.30242324  0.80198943    -0.89800
O538        O  0.35209358  0.24035276  0.80402810    -0.83000
C539        C  0.36270304  0.27362746  0.81078625     1.12200
O540        O  0.13107123  0.26847502  0.81252796    -0.96100
Zr541      Zr  0.19882412  0.24671813  0.80946689     1.88900
O542        O  0.28158533  0.18868553  0.84231125    -0.72700
O543        O  0.27761485  0.34388479  0.82621716    -0.52000
O544        O  0.19330404  0.29623365  0.85479836    -0.96700
O545        O  0.15664212  0.20040310  0.83673750    -0.53900
O546        O  0.23231851  0.22529010  0.86373770    -0.73200
C547        C  0.25940153  0.20104941  0.86804499     0.99100
O548        O  0.35624594  0.16917151  0.78784504    -0.62000
O549        O  0.20515323  0.14384713  0.66575406    -0.56900
O550        O  0.30310518  0.14212239  0.75989384    -0.93500
O551        O  0.24759399  0.12725541  0.72824665    -0.92000
O552        O  0.28522390  0.20431456  0.62746322    -0.92300
O553        O  0.35144621  0.21630906  0.66794801    -0.91100
C554        C  0.28135949  0.11900554  0.74247043     1.18000
H555        H  0.21011598  0.23012322  0.65679186     0.33900
H556        H  0.34026907  0.26094815  0.73903958     0.44800
H557        H  0.22408304  0.17100075  0.79678672     0.38300
H558        H  0.19782753  0.31957917  0.78307494     0.34800
H559        H  0.34217829  0.28773488  0.63472461     0.26500
H560        H  0.28611941  0.36922989  0.82042595     0.32500
H561        H  0.17532547  0.28663035  0.87364565     0.38400
H562        H  0.27575252  0.18109039  0.63834309     0.32900
H563        H  0.18072186  0.12954392  0.66819688     0.31700
H564        H  0.14367295  0.16125677  0.76515425     0.33400
H565        H  0.15422929  0.20802104  0.86283803     0.32400
H566        H  0.35760734  0.20355301  0.69133171     0.36400
H567        H  0.37690907  0.18142114  0.77347491     0.29100
H568        H  0.14229106  0.34204016  0.67238313     0.33300
H569        H  0.12805119  0.28535608  0.79134431     0.36200
H570        H  0.19996024  0.16071512  0.64491436     0.28800
H571        H  0.36416691  0.17221143  0.81395288     0.41700
H572        H  0.33077662  0.37168495  0.75657063     0.31700
H573        H  0.32853249  0.31504445  0.66575672     0.39300
H574        H  0.17240993  0.17731659  0.83759782     0.31200
H575        H  0.24925833  0.34643971  0.83145178     0.31300
H576        H  0.11987320  0.33165532  0.70846851     0.31500
C577        C  0.99764839  0.30050574  0.60010712     0.87000
C578        C  0.03033826  0.29424863  0.62857428    -0.53200
C579        C  0.02763914  0.26182596  0.64706551     0.09900
C580        C  0.99193106  0.23860586  0.63593217     0.20900
C581        C  0.99896177  0.26607734  0.57526455    -0.54000
C582        C  0.99571071  0.23361823  0.59404048     0.10000
C583        C  0.95975973  0.29729885  0.62191125    -0.53500
C584        C  0.95640295  0.26474227  0.64055647     0.10600
H585        H  0.05387024  0.31370084  0.63364809     0.15100
H586        H  0.98981935  0.21251531  0.65161641     0.00800
H587        H  0.00254541  0.26724818  0.54564445     0.15400
H588        H  0.93716014  0.31854217  0.62094278     0.15200
C589        C  0.99020891  0.20278326  0.07756619     0.87000
C590        C  0.95290333  0.20307019  0.10037586    -0.53200
C591        C  0.94736042  0.23416176  0.12083570     0.09900
C592        C  0.98035209  0.26261282  0.11661639     0.20900
C593        C  0.98795589  0.23776476  0.05407084    -0.54000
C594        C  0.98302218  0.26933336  0.07466801     0.10000
C595        C  0.02330802  0.20998866  0.10517847    -0.53500
C596        C  0.01823715  0.24098264  0.12628944     0.10600
H597        H  0.93283214  0.17993694  0.10096728     0.15100
H598        H  0.97628287  0.28806648  0.13341739     0.00800
H599        H  0.99021574  0.23761338  0.02437140     0.15400
H600        H  0.04884465  0.19192359  0.10703978     0.15200
Zr601      Zr  0.04147315  0.03638945  0.05075718     2.17500
O602        O  0.02410515  0.07780566  0.10138130    -0.50800
O603        O  0.10704728  0.06080994  0.04620576    -0.74000
O604        O  0.06537744  0.01528401  0.11110152    -0.80800
O605        O  0.98941024  0.10553374  0.98232820    -0.82600
O606        O  0.06966943  0.95263137  0.10796425    -0.78200
O607        O  0.01921548  0.09811182  0.03799216    -0.89800
O608        O  0.13398748  0.03513918  0.99500919    -0.75800
O609        O  0.07972619  0.98380120  0.03386812    -0.85300
O610        O  0.05134993  0.04256794  0.98586547    -0.85000
O611        O  0.00231118  0.98514476  0.06812215    -0.71700
O612        O  0.97833034  0.03971673  0.02123294    -0.83900
Zr613      Zr  0.98630971  0.94016509  0.95727702     2.26400
Zr614      Zr  0.03996144  0.93196581  0.04922508     2.06300
Zr615      Zr  0.98809339  0.04345509  0.95569928     2.10000
Zr616      Zr  0.08923751  0.98970569  0.96942468     1.78800
O617        O  0.92695464  0.07660758  0.94314912    -0.92700
O618        O  0.14658226  0.95207274  0.98518275    -0.40500
O619        O  0.02635115  0.99050025  0.93881954    -0.77100
O620        O  0.05090601  0.93689879  0.98417639    -0.95800
O621        O  0.97610696  0.93487981  0.02154590    -0.89100
O622        O  0.94848637  0.99292746  0.97352784    -0.91900
C623        C  0.13453496  0.05744101  0.02261279     1.01800
C624        C  0.00156682  0.11775163  0.01361358     1.14700
C625        C  0.07435441  0.98368189  0.12502275     1.05500
O626        O  0.09853483  0.89576242  0.06389575    -0.94100
O627        O  0.03679261  0.87046794  0.01954540    -0.89800
O628        O  0.99082831  0.87696237  0.97453086    -0.83000
C629        C  0.01454912  0.85743880  0.99381159     1.12200
O630        O  0.92064080  0.02643946  0.09119243    -0.96100
Zr631      Zr  0.93949823  0.98855969  0.03840129     1.88900
O632        O  0.91883235  0.92030897  0.96318326    -0.72700
O633        O  0.00110606  0.89791807  0.09321965    -0.52000
O634        O  0.91798561  0.95070882  0.08942777    -0.96700
O635        O  0.88348778  0.02882504  0.02470610    -0.53900
O636        O  0.89170405  0.94655908  0.01407122    -0.73200
C637        C  0.89062869  0.92523507  0.98595827     0.99100
O638        O  0.00750786  0.90067698  0.90621827    -0.62000
O639        O  0.02412804  0.07675695  0.90901006    -0.56900
O640        O  0.96040205  0.95796227  0.89781879    -0.93500
O641        O  0.95843919  0.02071065  0.89689031    -0.92000
O642        O  0.11057945  0.02494860  0.91650208    -0.92300
O643        O  0.11472652  0.95336462  0.91812307    -0.91100
C644        C  0.95226774  0.98864283  0.88204704     1.18000
H645        H  0.06504342  0.06508261  0.98033151     0.33900
H646        H  0.06473945  0.91535138  0.97497691     0.44800
H647        H  0.92370551  0.99362204  0.96052828     0.38300
H648        H  0.99830564  0.98502221  0.09440364     0.34800
H649        H  0.16907521  0.96565375  0.97502710     0.26500
H650        H  0.01904808  0.87828753  0.10235097     0.32500
H651        H  0.92344540  0.92495245  0.08156227     0.38400
H652        H  0.11272632  0.05072282  0.92547438     0.32900
H653        H  0.04006589  0.05751262  0.89648595     0.31700
H654        H  0.93276712  0.09237732  0.92176160     0.33400
H655        H  0.87206770  0.01910860  0.00152506     0.32400
H656        H  0.09294932  0.93690102  0.91090165     0.36400
H657        H  0.02063859  0.91741953  0.88887369     0.29100
H658        H  0.04900909  0.08397004  0.11408932     0.33300
H659        H  0.89322774  0.01965617  0.09666216     0.36200
H660        H  0.00401416  0.08393907  0.89052477     0.28800
H661        H  0.02930888  0.88529979  0.91608212     0.41700
H662        H  0.12052653  0.91305158  0.06066289     0.31700
H663        H  0.14960464  0.95473348  0.01215724     0.39300
H664        H  0.89520843  0.05267159  0.01776784     0.31200
H665        H  0.99790045  0.91497393  0.11440115     0.31300
H666        H  0.00934274  0.06265710  0.11901486     0.31500
Zr667      Zr  0.20434309  0.21328420  0.21170554     2.17500
O668        O  0.21689634  0.15690823  0.17630431    -0.50800
O669        O  0.13658879  0.21611882  0.19107042    -0.74000
O670        O  0.18334727  0.15726200  0.24226436    -0.80800
O671        O  0.24837776  0.26923865  0.13337587    -0.82600
O672        O  0.18520978  0.16880575  0.30379069    -0.78200
O673        O  0.22121589  0.21393926  0.14717408    -0.89800
O674        O  0.10880669  0.27112758  0.20708894    -0.75800
O675        O  0.16808104  0.23830964  0.26191911    -0.85300
O676        O  0.19163188  0.27629315  0.19650858    -0.85000
O677        O  0.24616745  0.20473868  0.26448845    -0.71700
O678        O  0.26718763  0.24104524  0.20343194    -0.83900
Zr679      Zr  0.26097319  0.32253217  0.29340279     2.26400
Zr680      Zr  0.21017258  0.23165332  0.31471519     2.06300
Zr681      Zr  0.25419125  0.30479435  0.19035174     2.10000
Zr682      Zr  0.15627639  0.30143562  0.24701809     1.78800
O683        O  0.31398335  0.31045343  0.15467751    -0.92700
O684        O  0.10140841  0.28983672  0.28779650    -0.40500
O685        O  0.21870907  0.33088302  0.24081045    -0.77100
O686        O  0.19719146  0.29537435  0.30060754    -0.95800
O687        O  0.27310463  0.25919660  0.30759686    -0.89100
O688        O  0.29638566  0.29737325  0.24262367    -0.91900
C689        C  0.10817435  0.23959352  0.19087663     1.01800
C690        C  0.23619640  0.23684200  0.12459855     1.14700
C691        C  0.17853915  0.14759235  0.27579197     1.05500
O692        O  0.14975756  0.22527535  0.34922547    -0.94100
O693        O  0.21729048  0.26860585  0.37170408    -0.89800
O694        O  0.24876598  0.32201451  0.35860180    -0.83000
C695        C  0.23186786  0.30017673  0.38089491     1.12200
O696        O  0.32799404  0.17571075  0.22824501    -0.96100
Zr697      Zr  0.30792469  0.23410804  0.25658340     1.88900
O698        O  0.32760782  0.31799614  0.31932208    -0.72700
O699        O  0.24620758  0.19250678  0.35775849    -0.52000
O700        O  0.33214090  0.18958273  0.30161098    -0.96700
O701        O  0.36360890  0.24222807  0.21570575    -0.53900
O702        O  0.35446126  0.26592747  0.29477223    -0.73200
C703        C  0.35585746  0.29440239  0.31570634     0.99100
O704        O  0.23944529  0.38185608  0.31938199    -0.62000
O705        O  0.21585665  0.34458632  0.14969123    -0.56900
O706        O  0.28820960  0.37604123  0.26336124    -0.93500
O707        O  0.28001914  0.36673758  0.20182671    -0.92000
O708        O  0.13491813  0.35020445  0.20535093    -0.92300
O709        O  0.13014690  0.35762720  0.27514144    -0.91100
C710        C  0.29071555  0.38633527  0.22978254     1.18000
H711        H  0.17700012  0.27847440  0.17378121     0.33900
H712        H  0.18343183  0.30725353  0.32063925     0.44800
H713        H  0.32087851  0.31003414  0.23914161     0.38300
H714        H  0.25127456  0.17881525  0.26868612     0.34800
H715        H  0.07774525  0.29634946  0.27314666     0.26500
H716        H  0.22565840  0.18139235  0.37314786     0.32500
H717        H  0.36086717  0.19331763  0.30285656     0.38400
H718        H  0.13265581  0.33811021  0.18094754     0.32900
H719        H  0.20607379  0.36475114  0.16580953     0.31700
H720        H  0.30964857  0.33263162  0.13932846     0.33400
H721        H  0.38052027  0.26078685  0.22786381     0.32400
H722        H  0.15354092  0.37077284  0.28449923     0.36400
H723        H  0.23034363  0.39687882  0.29825404     0.29100
H724        H  0.19130875  0.14438833  0.17378455     0.33300
H725        H  0.35645723  0.17301210  0.23339300     0.36200
H726        H  0.23550279  0.35646300  0.13386599     0.28800
H727        H  0.21486410  0.37671685  0.33266748     0.41700
H728        H  0.13870764  0.25062430  0.35074087     0.31700
H729        H  0.10041690  0.26263589  0.29003642     0.39300
H730        H  0.35256143  0.25508056  0.19397257     0.31200
H731        H  0.25635949  0.17174425  0.34261766     0.31300
H732        H  0.23306493  0.14074924  0.19239059     0.31500
C733        C  0.10289161  0.99996872  0.29562073     0.87000
C734        C  0.12157981  0.03812770  0.29520122    -0.53200
C735        C  0.14263904  0.04556096  0.26425065     0.09900
C736        C  0.14332823  0.01261416  0.23622970     0.20900
C737        C  0.07835612  0.99812956  0.25967566    -0.54000
C738        C  0.09957192  0.00438866  0.22831297     0.10000
C739        C  0.13704239  0.97284937  0.28938124    -0.53500
C740        C  0.15837709  0.97874376  0.25835254     0.10600
H741        H  0.11679713  0.05782769  0.31731492     0.15100
H742        H  0.16043479  0.01805945  0.21100048     0.00800
H743        H  0.04714898  0.99244566  0.25913108     0.15400
H744        H  0.14209710  0.94916941  0.30704045     0.15200
Zr745      Zr  0.94953451  0.04301383  0.55346438     2.17500
O746        O  0.88248815  0.04298280  0.57650547    -0.50800
O747        O  0.96144102  0.10546596  0.57658348    -0.74000
O748        O  0.94591665  0.02564794  0.61845762    -0.80800
O749        O  0.90649048  0.06282686  0.45767406    -0.82600
O750        O  0.00188468  0.99435691  0.63381601    -0.78200
O751        O  0.89418764  0.06925555  0.51886648    -0.89800
O752        O  0.01780898  0.12616893  0.55134653    -0.75800
O753        O  0.01741219  0.04646348  0.56964577    -0.85300
O754        O  0.98085278  0.07256788  0.50327638    -0.85000
O755        O  0.97072834  0.97990398  0.56162080    -0.71700
O756        O  0.93811948  0.00498751  0.50010518    -0.83900
Zr757      Zr  0.05947131  0.97611067  0.47325233     2.26400
Zr758      Zr  0.03924058  0.98370279  0.57696698     2.06300
Zr759      Zr  0.97042780  0.03454345  0.45013817     2.10000
Zr760      Zr  0.04854308  0.07542166  0.51903839     1.78800
O761        O  0.92479120  0.00850060  0.40527659    -0.92700
O762        O  0.09495101  0.09371736  0.56694812    -0.40500
O763        O  0.03870692  0.03882101  0.46468154    -0.77100
O764        O  0.07164082  0.01363026  0.52703079    -0.95800
O765        O  0.02874683  0.94609609  0.52337484    -0.89100
O766        O  0.99193008  0.97199614  0.45736174    -0.91900
C767        C  0.98708780  0.13052831  0.57100092     1.01800
C768        C  0.88495057  0.07307403  0.48468344     1.14700
C769        C  0.96810378  0.00852611  0.64173663     1.05500
O770        O  0.08542743  0.00989687  0.62113339    -0.94100
O771        O  0.10207462  0.95085578  0.56888195    -0.89800
O772        O  0.11426893  0.95050265  0.50738776    -0.83000
C773        C  0.12365365  0.94324217  0.54084714     1.12200
O774        O  0.89725898  0.93012864  0.53450843    -0.96100
Zr775      Zr  0.96111306  0.94278245  0.50785250     1.88900
O776        O  0.04990710  0.91255358  0.45340181    -0.72700
O777        O  0.03526163  0.92437669  0.60779861    -0.52000
O778        O  0.96680082  0.89181343  0.55110215    -0.96700
O779        O  0.91078694  0.92563630  0.46308029    -0.53900
O780        O  0.99120787  0.89239301  0.47404315    -0.73200
C781        C  0.02347755  0.88783281  0.45665747     0.99100
O782        O  0.12551853  0.97791297  0.44787091    -0.62000
O783        O  0.97321911  0.09525480  0.42190615    -0.56900
O784        O  0.06007867  0.99024940  0.40718608    -0.93500
O785        O  0.00725037  0.02646929  0.39325942    -0.92000
O786        O  0.05069286  0.12652868  0.47583670    -0.92300
O787        O  0.11444015  0.08421397  0.49538575    -0.91100
C788        C  0.03895629  0.00919336  0.38440877     1.18000
H789        H  0.96995528  0.09698128  0.49927965     0.33900
H790        H  0.09946144  0.01500496  0.53207369     0.44800
H791        H  0.98827466  0.95810616  0.43477044     0.38300
H792        H  0.95639527  0.96815752  0.58107444     0.34800
H793        H  0.10055196  0.11996803  0.56186015     0.26500
H794        H  0.05018983  0.92775574  0.63102333     0.32500
H795        H  0.99420924  0.88277686  0.54889006     0.38400
H796        H  0.02647369  0.14114789  0.48034330     0.32900
H797        H  0.00141896  0.09915813  0.41709266     0.31700
H798        H  0.93739372  0.98534614  0.39652038     0.33400
H799        H  0.92526656  0.91603970  0.44148763     0.32400
H800        H  0.11903717  0.06273969  0.47891560     0.36400
H801        H  0.12579699  0.95977456  0.42736927     0.29100
H802        H  0.88249976  0.05912595  0.59859033     0.33300
H803        H  0.89317364  0.90330211  0.53093338     0.36200
H804        H  0.96121724  0.09192338  0.39724248     0.28800
H805        H  0.12777512  0.00235076  0.43604808     0.41700
H806        H  0.10523376  0.02231996  0.60590875     0.31700
H807        H  0.07946695  0.09437559  0.58987535     0.39300
H808        H  0.89937183  0.94943832  0.45476080     0.31200
H809        H  0.00757400  0.92242922  0.61551856     0.31300
H810        H  0.87826299  0.01772150  0.58585949     0.31500
C811        C  0.24853384  0.17821430  0.97021818     0.87000
C812        C  0.21561093  0.14995357  0.96693177    -0.53200
C813        C  0.21222799  0.12757029  0.99659217     0.09900
C814        C  0.24258771  0.13538772  0.02720056     0.20900
C815        C  0.24030775  0.19943565  0.00600490    -0.54000
C816        C  0.23787242  0.17698860  0.03622330     0.10000
C817        C  0.28561128  0.15570427  0.97851144    -0.53500
C818        C  0.28213445  0.13219849  0.00740585     0.10600
H819        H  0.19686973  0.14749672  0.94272536     0.15100
H820        H  0.24055583  0.11689914  0.05133662     0.00800
H821        H  0.23730935  0.22926578  0.00709522     0.15400
H822        H  0.31195844  0.15737234  0.96201426     0.15200
Zr823      Zr  0.45906606  0.04496085  0.95575274     2.17500
O824        O  0.45715731  0.08627912  0.90281885    -0.50800
O825        O  0.39168324  0.06426965  0.96638099    -0.74000
O826        O  0.43766497  0.01641012  0.89743650    -0.80800
O827        O  0.51697999  0.12060753  0.01045709    -0.82600
O828        O  0.43942602  0.95439345  0.90613418    -0.78200
O829        O  0.47968711  0.10827958  0.95985317    -0.89800
O830        O  0.37245237  0.04868304  0.02383137    -0.75800
O831        O  0.42587014  0.99356759  0.98055280    -0.85300
O832        O  0.45395915  0.05736612  0.02022182    -0.85000
O833        O  0.50099579  0.99358068  0.94081483    -0.71700
O834        O  0.52462375  0.05214816  0.97938452    -0.83900
Zr835      Zr  0.52708230  0.95805159  0.05523702     2.26400
Zr836      Zr  0.46798762  0.94198780  0.96673238     2.06300
Zr837      Zr  0.51935358  0.06251839  0.04440671     2.10000
Zr838      Zr  0.42164394  0.00538235  0.04514179     1.78800
O839        O  0.57938848  0.09757739  0.05270352    -0.92700
O840        O  0.36287623  0.96879598  0.03477957    -0.40500
O841        O  0.48662314  0.01056123  0.07032075    -0.77100
O842        O  0.46117368  0.95233565  0.03176517    -0.95800
O843        O  0.53328958  0.94720649  0.99076065    -0.89100
O844        O  0.56026730  0.01016987  0.03105892    -0.91900
C845        C  0.36743942  0.06516885  0.99314014     1.01800
C846        C  0.49976689  0.13011519  0.98033703     1.14700
C847        C  0.43237988  0.98303736  0.88631436     1.05500
O848        O  0.40696377  0.90808850  0.96066510    -0.94100
O849        O  0.47617107  0.88275970  0.99716188    -0.89800
O850        O  0.50941616  0.89329257  0.05067940    -0.83000
C851        C  0.49140167  0.87210221  0.02775594     1.12200
O852        O  0.58033807  0.03008888  0.90877175    -0.96100
Zr853      Zr  0.56518135  0.99977224  0.96659241     1.88900
O854        O  0.59444995  0.93631251  0.04645477    -0.72700
O855        O  0.50274050  0.90152755  0.92394103    -0.52000
O856        O  0.58453021  0.95472007  0.91983790    -0.96700
O857        O  0.61936658  0.04304244  0.97053361    -0.53900
O858        O  0.61615544  0.96284207  0.99416159    -0.73200
C859        C  0.62065759  0.94165203  0.02194188     0.99100
O860        O  0.52180997  0.91962233  0.10990768    -0.62000
O861        O  0.48150794  0.10116805  0.08652991    -0.56900
O862        O  0.54969576  0.98754673  0.11207837    -0.93500
O863        O  0.55156042  0.04961914  0.10356549    -0.92000
O864        O  0.40906400  0.04304318  0.09962268    -0.92300
O865        O  0.40207681  0.96914779  0.09799228    -0.91100
C866        C  0.55761472  0.02046484  0.12294376     1.18000
H867        H  0.43976689  0.08013197  0.02486809     0.33900
H868        H  0.44806483  0.93179225  0.04294932     0.44800
H869        H  0.58584352  0.01309685  0.04234087     0.38300
H870        H  0.50419281  0.99073043  0.91457614     0.34800
H871        H  0.34197085  0.98178176  0.04870889     0.26500
H872        H  0.48268875  0.88382851  0.91527425     0.32500
H873        H  0.58421332  0.93055158  0.93240384     0.38400
H874        H  0.40078757  0.06749670  0.09012816     0.32900
H875        H  0.48188532  0.08755163  0.11005992     0.31700
H876        H  0.57298100  0.11630443  0.07176017     0.33400
H877        H  0.63352517  0.03670621  0.99354287     0.32400
H878        H  0.42709048  0.96211942  0.11022920     0.36400
H879        H  0.54845787  0.91827931  0.12091955     0.29100
H880        H  0.43026904  0.08499682  0.89237265     0.33300
H881        H  0.60663202  0.02075683  0.90162200     0.36200
H882        H  0.49821476  0.12292204  0.09119406     0.28800
H883        H  0.50579622  0.93399597  0.12767451     0.41700
H884        H  0.39298844  0.91300166  0.98397573     0.31700
H885        H  0.35574017  0.97281431  0.00865181     0.39300
H886        H  0.60674147  0.06724459  0.97578102     0.31200
H887        H  0.50803704  0.91706763  0.90226890     0.31300
H888        H  0.47447485  0.07492989  0.88403385     0.31500
Zr889      Zr  0.54293303  0.04957885  0.46384267     2.17500
O890        O  0.59971922  0.07295153  0.43105223    -0.50800
O891        O  0.51960037  0.10922605  0.44192911    -0.74000
O892        O  0.54695378  0.02645231  0.40022684    -0.80800
O893        O  0.59790240  0.06926790  0.55665756    -0.82600
O894        O  0.49306730  0.99201480  0.38798994    -0.78200
O895        O  0.60340535  0.06616097  0.49443889    -0.89800
O896        O  0.46308353  0.12642529  0.47017220    -0.75800
O897        O  0.47428764  0.04687776  0.45318936    -0.85300
O898        O  0.51351879  0.07851401  0.51650762    -0.85000
O899        O  0.53082464  0.98462559  0.45779328    -0.71700
O900        O  0.56404458  0.01640486  0.51740061    -0.83900
Zr901      Zr  0.45156728  0.97431744  0.55219868     2.26400
Zr902      Zr  0.46132945  0.98220869  0.44773487     2.06300
Zr903      Zr  0.53305993  0.04383298  0.57000334     2.10000
Zr904      Zr  0.44469456  0.07399252  0.50638119     1.78800
O905        O  0.57898463  0.02089206  0.61639108    -0.92700
O906        O  0.38966127  0.08335383  0.46419788    -0.40500
O907        O  0.46393273  0.03918882  0.55930170    -0.77100
O908        O  0.42972213  0.00986518  0.50007610    -0.95800
O909        O  0.48270030  0.94723674  0.50007077    -0.89100
O910        O  0.52024133  0.97887013  0.56457655    -0.91900
C911        C  0.49119496  0.13187516  0.44787195     1.01800
C912        C  0.61731816  0.07281306  0.52666182     1.14700
C913        C  0.52524622  0.00738084  0.37823147     1.05500
O914        O  0.41007306  0.00860954  0.40870283    -0.94100
O915        O  0.40354039  0.94579751  0.46180353    -0.89800
O916        O  0.39654054  0.94286128  0.52393211    -0.83000
C917        C  0.38529656  0.93584974  0.49090173     1.12200
O918        O  0.61380591  0.95194700  0.47970473    -0.96100
Zr919      Zr  0.55118527  0.95239949  0.51174306     1.88900
O920        O  0.47146882  0.91208831  0.57106453    -0.72700
O921        O  0.46361095  0.92334375  0.41491984    -0.52000
O922        O  0.55783622  0.89878912  0.47139841    -0.96700
O923        O  0.60503630  0.94295469  0.55537419    -0.53900
O924        O  0.52983567  0.89894495  0.54390913    -0.73200
C925        C  0.50048189  0.89039766  0.56354270     0.99100
O926        O  0.38727670  0.96791674  0.58051565    -0.62000
O927        O  0.53428243  0.10574690  0.59657365    -0.56900
O928        O  0.45042005  0.99321066  0.61654677    -0.93500
O929        O  0.49280501  0.04033760  0.62635794    -0.92000
O930        O  0.44375970  0.12779545  0.54690865    -0.92300
O931        O  0.38280860  0.08060091  0.53895963    -0.91100
C932        C  0.46537438  0.01860777  0.63697045     1.18000
H933        H  0.52153465  0.10390542  0.51894830     0.33900
H934        H  0.40162274  0.00847301  0.49736265     0.44800
H935        H  0.52750003  0.96604279  0.58687236     0.38300
H936        H  0.54504301  0.97286404  0.43801604     0.34800
H937        H  0.38268308  0.10985376  0.46680821     0.26500
H938        H  0.44822141  0.92758497  0.39209845     0.32500
H939        H  0.53185056  0.89648254  0.45931268     0.38400
H940        H  0.44266578  0.11755899  0.57205406     0.32900
H941        H  0.50677699  0.11117898  0.60344302     0.31700
H942        H  0.57457196  0.03695251  0.63814102     0.33400
H943        H  0.59286732  0.93234482  0.57750069     0.32400
H944        H  0.37941633  0.05665562  0.55147130     0.36400
H945        H  0.39134352  0.95202530  0.60230644     0.29100
H946        H  0.58895922  0.08693141  0.40987419     0.33300
H947        H  0.62753522  0.92901527  0.48744443     0.36200
H948        H  0.54825406  0.10276970  0.62036785     0.28800
H949        H  0.38033292  0.99262610  0.59049390     0.41700
H950        H  0.40839015  0.99157968  0.38735523     0.31700
H951        H  0.40124321  0.08127176  0.43937635     0.39300
H952        H  0.61277107  0.96816634  0.56299285     0.31200
H953        H  0.49107400  0.92060992  0.40657357     0.31300
H954        H  0.61301008  0.05110462  0.42007275     0.31500
C955        C  0.48320811  0.23313586  0.41711193     0.87000
C956        C  0.51954846  0.23519465  0.39282129    -0.53200
C957        C  0.51977554  0.26466071  0.36950440     0.09900
C958        C  0.48397893  0.29081910  0.37444896     0.20900
C959        C  0.48295876  0.26977601  0.43820242    -0.54000
C960        C  0.48362205  0.30004256  0.41598838     0.10000
C961        C  0.44821903  0.23549080  0.39060546    -0.53500
C962        C  0.44821502  0.26588172  0.36868610     0.10600
H963        H  0.54314309  0.21497246  0.39471015     0.15100
H964        H  0.48440497  0.31514213  0.35602686     0.00800
H965        H  0.48346205  0.27167041  0.46803405     0.15400
H966        H  0.42557434  0.21462470  0.38898709     0.15200
Zr967      Zr  0.96335643  0.44401349  0.04117978     2.17500
O968        O  0.97549674  0.40767977  0.09654912    -0.50800
O969        O  0.89531746  0.42560926  0.03526956    -0.74000
O970        O  0.93826366  0.47401051  0.09700261    -0.80800
O971        O  0.00652111  0.36520206  0.98328352    -0.82600
O972        O  0.94998243  0.53537918  0.09200248    -0.78200
O973        O  0.97462705  0.37881905  0.03653440    -0.89800
O974        O  0.87331371  0.44721681  0.98027438    -0.75800
O975        O  0.93104129  0.49768381  0.01855358    -0.85300
O976        O  0.95344229  0.43279623  0.97685678    -0.85000
O977        O  0.00903328  0.49209073  0.05458355    -0.71700
O978        O  0.02679873  0.43290972  0.01415015    -0.83900
Zr979      Zr  0.02806998  0.52718925  0.93899993     2.26400
Zr980      Zr  0.97658251  0.54587718  0.03087805     2.06300
Zr981      Zr  0.01638996  0.42309601  0.94943145     2.10000
Zr982      Zr  0.92189753  0.48697388  0.95432191     1.78800
O983        O  0.07354834  0.38293250  0.94193822    -0.92700
O984        O  0.86473936  0.52628631  0.96565874    -0.40500
O985        O  0.98428344  0.47730089  0.92597476    -0.77100
O986        O  0.96453357  0.53754653  0.96604702    -0.95800
O987        O  0.03931868  0.53677399  0.00306795    -0.89100
O988        O  0.06069712  0.47291458  0.96079401    -0.91900
C989        C  0.86939921  0.42839457  0.00970849     1.01800
C990        C  0.99093594  0.35612226  0.01412916     1.14700
C991        C  0.93778715  0.50722766  0.10973702     1.05500
O992        O  0.91857423  0.58492263  0.03860639    -0.94100
O993        O  0.98760997  0.60442812  0.00196200    -0.89800
O994        O  0.01661567  0.59312412  0.94679483    -0.83000
C995        C  0.00203846  0.61477507  0.97138205     1.12200
O996        O  0.09407952  0.44475460  0.07614379    -0.96100
Zr997      Zr  0.07103418  0.48255786  0.02490292     1.88900
O998        O  0.09540050  0.54846357  0.94579666    -0.72700
O999        O  0.01558096  0.58363900  0.07269641    -0.52000
O1000       O  0.09303585  0.52012668  0.07680111    -0.96700
O1001       O  0.12655602  0.44285905  0.00850172    -0.53900
O1002       O  0.11645630  0.52692245  0.00108567    -0.73200
C1003       C  0.12022763  0.54701150  0.97246768     0.99100
O1004       O  0.01956138  0.55877088  0.88031068    -0.62000
O1005       O  0.97733226  0.38720002  0.90601894    -0.56900
O1006       O  0.04781565  0.49756484  0.88151104    -0.93500
O1007       O  0.04591387  0.43521953  0.88872272    -0.92000
O1008       O  0.90080888  0.44858700  0.90278870    -0.92300
O1009       O  0.90430023  0.52406996  0.90090479    -0.91100
C1010       C  0.05316570  0.46434546  0.86968930     1.18000
H1011       H  0.93769740  0.41114272  0.97258229     0.33900
H1012       H  0.95195246  0.55926584  0.95592837     0.44800
H1013       H  0.08520337  0.46900848  0.94805521     0.38300
H1014       H  0.01339789  0.49426353  0.08077449     0.34800
H1015       H  0.84373744  0.51576226  0.94994161     0.26500
H1016       H  0.99620951  0.59990255  0.08515267     0.32500
H1017       H  0.12199076  0.52060956  0.07484232     0.38400
H1018       H  0.87180711  0.45050051  0.90279892     0.32900
H1019       H  0.96914419  0.40512825  0.88692520     0.31700
H1020       H  0.06436373  0.36259750  0.92580832     0.33400
H1021       H  0.14233452  0.45744084  0.99119128     0.32400
H1022       H  0.92914499  0.53567379  0.89342087     0.36400
H1023       H  0.99412048  0.57212315  0.88191372     0.29100
H1024       H  0.94959249  0.40462486  0.10824714     0.33300
H1025       H  0.12216621  0.45073337  0.07959617     0.36200
H1026       H  0.99654708  0.37080552  0.89352818     0.28800
H1027       H  0.03965735  0.57832470  0.88011383     0.41700
H1028       H  0.89752352  0.57197733  0.02496335     0.31700
H1029       H  0.85670213  0.52048881  0.99106884     0.39300
H1030       H  0.11513230  0.42289664  0.99324019     0.31200
H1031       H  0.02480467  0.56645297  0.09205618     0.31300
H1032       H  0.99043588  0.42391951  0.11347408     0.31500
Zr1033     Zr  0.53269501  0.45758379  0.94362331     2.17500
O1034       O  0.53774295  0.41701185  0.88985136    -0.50800
O1035       O  0.60103020  0.44182784  0.95410641    -0.74000
O1036       O  0.55374882  0.48842975  0.88756204    -0.80800
O1037       O  0.48313778  0.38069957  0.99819252    -0.82600
O1038       O  0.55233694  0.55037748  0.89788950    -0.78200
O1039       O  0.51235252  0.39306442  0.94368149    -0.89800
O1040       O  0.62375103  0.46452696  0.00854544    -0.75800
O1041       O  0.56403064  0.51030454  0.96956660    -0.85300
O1042       O  0.54039461  0.44591013  0.00788815    -0.85000
O1043       O  0.48953951  0.50850451  0.92945493    -0.71700
O1044       O  0.46797509  0.44804522  0.96671074    -0.83900
Zr1045     Zr  0.46294923  0.54149788  0.04341932     2.26400
Zr1046     Zr  0.52071059  0.56126939  0.95693235     2.06300
Zr1047     Zr  0.47570732  0.43826455  0.03147396     2.10000
Zr1048     Zr  0.57028034  0.49926956  0.03393244     1.78800
O1049       O  0.41240628  0.40794586  0.03545594    -0.92700
O1050       O  0.62424979  0.54258455  0.02957957    -0.40500
O1051       O  0.50622588  0.49123106  0.05847347    -0.77100
O1052       O  0.52848042  0.55088231  0.02171360    -0.95800
O1053       O  0.45551035  0.55299048  0.97937285    -0.89100
O1054       O  0.43180609  0.48837020  0.01833742    -0.91900
C1055       C  0.62764529  0.44606860  0.97877414     1.01800
C1056       C  0.49593003  0.37114164  0.96648516     1.14700
C1057       C  0.55988431  0.52190102  0.87779683     1.05500
O1058       O  0.58054951  0.59686304  0.95156042    -0.94100
O1059       O  0.51315045  0.62003636  0.98992534    -0.89800
O1060       O  0.47851508  0.60674199  0.04122347    -0.83000
C1061       C  0.49659703  0.62930595  0.02032423     1.12200
O1062       O  0.41606157  0.46551266  0.89632666    -0.96100
Zr1063     Zr  0.42554313  0.49927700  0.95389945     1.88900
O1064       O  0.39301422  0.55191319  0.03577747    -0.72700
O1065       O  0.48379814  0.60025810  0.91443588    -0.52000
O1066       O  0.40421072  0.54126768  0.90548006    -0.96700
O1067       O  0.37134685  0.45616355  0.95922509    -0.53900
O1068       O  0.37193741  0.53494929  0.97881751    -0.73200
C1069       C  0.36674268  0.54949849  0.01053586     0.99100
O1070       O  0.44943257  0.58471731  0.09371096    -0.62000
O1071       O  0.50723219  0.39428525  0.07308029    -0.56900
O1072       O  0.45455081  0.51124267  0.10245050    -0.93500
O1073       O  0.45340855  0.44911677  0.09389016    -0.92000
O1074       O  0.58983656  0.45516971  0.08110904    -0.92300
O1075       O  0.58549726  0.53129080  0.09133333    -0.91100
C1076       C  0.44957761  0.47817883  0.11394793     1.18000
H1077       H  0.55603086  0.42392748  0.01221880     0.33900
H1078       H  0.54085083  0.57153460  0.03384683     0.44800
H1079       H  0.40675683  0.48381280  0.02960809     0.38300
H1080       H  0.48641841  0.51163091  0.90323035     0.34800
H1081       H  0.64616372  0.53088893  0.04343384     0.26500
H1082       H  0.50351702  0.61733254  0.90449320     0.32500
H1083       H  0.40686731  0.56624514  0.91639083     0.38400
H1084       H  0.56488419  0.44695241  0.09196488     0.32900
H1085       H  0.48670369  0.37595920  0.07836869     0.31700
H1086       H  0.41873952  0.38178425  0.04087456     0.33400
H1087       H  0.35658999  0.46417095  0.98127203     0.32400
H1088       H  0.56121843  0.52970128  0.10597996     0.36400
H1089       H  0.42401463  0.57715640  0.10414458     0.29100
H1090       H  0.56519791  0.41874827  0.88134685     0.33300
H1091       H  0.38793649  0.46865241  0.88994436     0.36200
H1092       H  0.52671521  0.38060410  0.05805880     0.28800
H1093       H  0.46917478  0.57933673  0.11312995     0.41700
H1094       H  0.59092288  0.59873299  0.97700398     0.31700
H1095       H  0.63252816  0.54121822  0.00356545     0.39300
H1096       H  0.38393375  0.43251457  0.96646579     0.31200
H1097       H  0.47722564  0.58378149  0.89349406     0.31300
H1098       H  0.52155206  0.42856893  0.87023338     0.31500
Zr1099     Zr  0.95487136  0.55593824  0.45618433     2.17500
O1100       O  0.91038070  0.60842232  0.44636524    -0.50800
O1101       O  0.92732980  0.54208756  0.39547928    -0.74000
O1102       O  0.98699132  0.61081304  0.43428706    -0.80800
O1103       O  0.87208525  0.50668428  0.50581791    -0.82600
O1104       O  0.05295748  0.60126156  0.43337105    -0.78200
O1105       O  0.89212266  0.56250671  0.48567152    -0.89800
O1106       O  0.95884183  0.49228851  0.37116390    -0.75800
O1107       O  0.00915503  0.52871384  0.42491195    -0.85300
O1108       O  0.93985759  0.49205550  0.45200571    -0.85000
O1109       O  0.01099924  0.57059606  0.49416157    -0.71700
O1110       O  0.94731843  0.53587341  0.51835216    -0.83900
Zr1111     Zr  0.04339566  0.45766560  0.52288365     2.26400
Zr1112     Zr  0.06535241  0.54122101  0.46324806     2.06300
Zr1113     Zr  0.93317176  0.47141007  0.51408576     2.10000
Zr1114     Zr  0.99477183  0.46457128  0.42218520     1.78800
O1115       O  0.90180028  0.47156761  0.57401597    -0.92700
O1116       O  0.04291185  0.46264678  0.37302464    -0.40500
O1117       O  0.98818147  0.44337646  0.48416613    -0.77100
O1118       O  0.05135956  0.47624648  0.45976417    -0.95800
O1119       O  0.05870924  0.52139096  0.52595966    -0.89100
O1120       O  0.98851940  0.48459976  0.55293164    -0.91900
C1121       C  0.93398673  0.51904521  0.36925744     1.01800
C1122       C  0.86584362  0.54072453  0.49770458     1.14700
C1123       C  0.02197658  0.62119812  0.42750435     1.05500
O1124       O  0.10099658  0.54531657  0.40558249    -0.94100
O1125       O  0.12686381  0.50512487  0.46906622    -0.89800
O1126       O  0.11230268  0.46065400  0.51022545    -0.83000
C1127       C  0.13628059  0.47723751  0.48922885     1.12200
O1128       O  0.97142100  0.60842523  0.56463803    -0.96100
Zr1129     Zr  0.00366740  0.54857987  0.55594333     1.88900
O1130       O  0.06289261  0.46562941  0.58787705    -0.72700
O1131       O  0.11076880  0.58179635  0.49546710    -0.52000
O1132       O  0.05514938  0.59196574  0.57262109    -0.96700
O1133       O  0.95783843  0.55210744  0.60698022    -0.53900
O1134       O  0.03826473  0.52051280  0.60791492    -0.73200
C1135       C  0.05767511  0.49033977  0.61308253     0.99100
O1136       O  0.07570880  0.39715880  0.52110297    -0.62000
O1137       O  0.88518192  0.42930431  0.48750821    -0.56900
O1138       O  0.01209753  0.40225231  0.54295884    -0.93500
O1139       O  0.94596453  0.40909179  0.53734579    -0.92000
O1140       O  0.94453404  0.42047079  0.40431029    -0.92300
O1141       O  0.01955076  0.40227207  0.41051585    -0.91100
C1142       C  0.97700980  0.39042821  0.54592510     1.18000
H1143       H  0.91578813  0.48786518  0.43840364     0.33900
H1144       H  0.07272698  0.46267219  0.44858893     0.44800
H1145       H  0.98487484  0.47422332  0.57699784     0.38300
H1146       H  0.01483032  0.59691048  0.49612938     0.34800
H1147       H  0.02725552  0.46053309  0.35007027     0.26500
H1148       H  0.12928348  0.58975478  0.47630098     0.32500
H1149       H  0.07919063  0.57663201  0.57554976     0.38400
H1150       H  0.93877202  0.40685404  0.42713672     0.32900
H1151       H  0.86360891  0.42881435  0.50556714     0.31700
H1152       H  0.87611014  0.45974503  0.56964928     0.33400
H1153       H  0.97381745  0.56002062  0.62842304     0.32400
H1154       H  0.04001047  0.39824425  0.42959313     0.36400
H1155       H  0.08719343  0.39485338  0.49624666     0.29100
H1156       H  0.91258620  0.61499221  0.42007482     0.33300
H1157       H  0.98611942  0.62089004  0.58466511     0.36200
H1158       H  0.87384667  0.44238278  0.46602351     0.28800
H1159       H  0.09841290  0.39857414  0.53820383     0.41700
H1160       H  0.11075903  0.51997575  0.40044555     0.31700
H1161       H  0.05364367  0.48791063  0.37239542     0.39300
H1162       H  0.95112406  0.52615103  0.61221223     0.31200
H1163       H  0.09510801  0.60423197  0.50128709     0.31300
H1164       H  0.92157302  0.62956376  0.46014965     0.31500
C1165       C  0.25125634  0.35264815  0.53615906     0.87000
C1166       C  0.22002741  0.38284281  0.54085932    -0.53200
C1167       C  0.21785215  0.40744538  0.51268444     0.09900
C1168       C  0.24840416  0.39973703  0.48228516     0.20900
C1169       C  0.24278515  0.33459945  0.49899552    -0.54000
C1170       C  0.24161717  0.35888496  0.47028660     0.10000
C1171       C  0.28929834  0.37355194  0.53099551    -0.53500
C1172       C  0.28784481  0.39907126  0.50364884     0.10600
H1173       H  0.20100627  0.38465445  0.56466053     0.15100
H1174       H  0.24750930  0.41976994  0.45931264     0.00800
H1175       H  0.24005920  0.30493862  0.49599168     0.15400
H1176       H  0.31505627  0.36880705  0.54814798     0.15200
Zr1177     Zr  0.44297757  0.49090936  0.45280100     2.17500
O1178       O  0.37553633  0.49486973  0.42985416    -0.50800
O1179       O  0.45437292  0.42945614  0.42739498    -0.74000
O1180       O  0.43873866  0.50549944  0.38762486    -0.80800
O1181       O  0.40420913  0.46217493  0.54562273    -0.82600
O1182       O  0.49142068  0.54046628  0.37354670    -0.78200
O1183       O  0.39001394  0.46218203  0.48428535    -0.89800
O1184       O  0.51191679  0.40816453  0.45144826    -0.75800
O1185       O  0.50986713  0.48942909  0.43513471    -0.85300
O1186       O  0.47672472  0.45873511  0.50103531    -0.85000
O1187       O  0.45998273  0.55470798  0.44755394    -0.71700
O1188       O  0.43120387  0.52425085  0.50911291    -0.83900
Zr1189     Zr  0.55132736  0.55592860  0.53354852     2.26400
Zr1190     Zr  0.52781239  0.55295525  0.43080651     2.06300
Zr1191     Zr  0.46694253  0.49289013  0.55700832     2.10000
Zr1192     Zr  0.54360380  0.45820488  0.48357995     1.78800
O1193       O  0.42481629  0.52101941  0.60338843    -0.92700
O1194       O  0.58801268  0.44219185  0.43363828    -0.40500
O1195       O  0.53442896  0.49225534  0.53932731    -0.77100
O1196       O  0.56368992  0.52093597  0.47814064    -0.95800
O1197       O  0.51688529  0.58799951  0.48610994    -0.89100
O1198       O  0.48471265  0.55649420  0.55257541    -0.91900
C1199       C  0.48051697  0.40422883  0.43230209     1.01800
C1200       C  0.38224053  0.45442281  0.51767472     1.14700
C1201       C  0.45972019  0.52333015  0.36475150     1.05500
O1202       O  0.57392633  0.53317809  0.38361582    -0.94100
O1203       O  0.59071520  0.58362642  0.43974638    -0.89800
O1204       O  0.60640355  0.58021113  0.50051709    -0.83000
C1205       C  0.61401599  0.58881161  0.46725175     1.12200
O1206       O  0.38371726  0.59583522  0.48000890    -0.96100
Zr1207     Zr  0.44994559  0.58738507  0.50434764     1.88900
O1208       O  0.53534036  0.61424737  0.56424981    -0.72700
O1209       O  0.51658203  0.61307221  0.40280823    -0.52000
O1210       O  0.44395530  0.64340195  0.46796715    -0.96700
O1211       O  0.40241429  0.59878918  0.55295617    -0.53900
O1212       O  0.47812320  0.63654923  0.54071420    -0.73200
C1213       C  0.50843271  0.63912936  0.56157354     0.99100
O1214       O  0.61306745  0.57384958  0.56290514    -0.62000
O1215       O  0.46940385  0.43414560  0.58930125    -0.56900
O1216       O  0.56498308  0.52275003  0.58988038    -0.93500
O1217       O  0.51130225  0.49358221  0.61131783    -0.92000
O1218       O  0.54807730  0.40644547  0.52588819    -0.92300
O1219       O  0.61046518  0.44647475  0.50484842    -0.91100
C1220       C  0.54703517  0.50458138  0.61459398     1.18000
H1221       H  0.46698236  0.43394804  0.50372069     0.33900
H1222       H  0.59126657  0.51975013  0.47244682     0.44800
H1223       H  0.48137372  0.56844508  0.57620174     0.38300
H1224       H  0.44442518  0.56654006  0.42854695     0.34800
H1225       H  0.58810521  0.41485624  0.43258932     0.26500
H1226       H  0.52911058  0.63087482  0.41989036     0.32500
H1227       H  0.47124471  0.64977886  0.46166295     0.38400
H1228       H  0.54157996  0.41715026  0.55024407     0.32900
H1229       H  0.44902609  0.43646023  0.60846343     0.31700
H1230       H  0.40013850  0.52704545  0.59007969     0.33400
H1231       H  0.39427064  0.62491207  0.54977817     0.32400
H1232       H  0.61833416  0.46971793  0.51721628     0.36400
H1233       H  0.60605316  0.58321602  0.58767056     0.29100
H1234       H  0.37404851  0.47764649  0.40862230     0.33300
H1235       H  0.37184209  0.57104232  0.48133009     0.36200
H1236       H  0.45894781  0.41572648  0.57164807     0.28800
H1237       H  0.62803757  0.55068171  0.56734178     0.41700
H1238       H  0.59342993  0.51759020  0.39678786     0.31700
H1239       H  0.57391348  0.44984945  0.41098709     0.39300
H1240       H  0.41786166  0.59877128  0.57611794     0.31200
H1241       H  0.53358532  0.61289510  0.38085501     0.31300
H1242       H  0.37257066  0.51985657  0.41920971     0.31500
C1243       C  0.40492755  0.50394959  0.20797087     0.87000
C1244       C  0.37930976  0.53865570  0.20496246    -0.53200
C1245       C  0.35331427  0.54411360  0.23284783     0.09900
C1246       C  0.35505082  0.51270471  0.26180796     0.20900
C1247       C  0.42459484  0.50690421  0.24594122    -0.54000
C1248       C  0.39874581  0.51135200  0.27443758     0.10000
C1249       C  0.37565471  0.47241007  0.21137185    -0.53500
C1250       C  0.34933190  0.47655993  0.23921262     0.10600
H1251       H  0.38241052  0.55819096  0.18260302     0.15100
H1252       H  0.33404379  0.51620936  0.28477302     0.00800
H1253       H  0.45613596  0.50463336  0.24976514     0.15400
H1254       H  0.37613583  0.44801689  0.19414882     0.15200
C1255       C  0.99634122  0.77378176  0.93167942     0.87000
C1256       C  0.96149110  0.77036993  0.90495569    -0.53200
C1257       C  0.96516801  0.74288462  0.87944949     0.09900
C1258       C  0.00405722  0.72129328  0.88272653     0.20900
C1259       C  0.00131504  0.73556149  0.94851703    -0.54000
C1260       C  0.00533812  0.70792670  0.92279525     0.10000
C1261       C  0.03200045  0.77845605  0.90674044    -0.53500
C1262       C  0.03629064  0.75085752  0.88106284     0.10600
H1263       H  0.93618640  0.78890097  0.90546398     0.15100
H1264       H  0.00734065  0.69891849  0.86188307     0.00800
H1265       H  0.00210208  0.73128455  0.97800324     0.15400
H1266       H  0.05242672  0.80098777  0.91024083     0.15200
Zr1267     Zr  0.19482491  0.70473740  0.78747370     2.17500
O1268       O  0.12920246  0.67861566  0.78296704    -0.50800
O1269       O  0.20668546  0.67822448  0.84790456    -0.74000
O1270       O  0.19536174  0.63997053  0.76906205    -0.80800
O1271       O  0.15252635  0.79735960  0.82094056    -0.82600
O1272       O  0.24537431  0.62858642  0.72939310    -0.78200
O1273       O  0.14059169  0.73563901  0.81803320    -0.89800
O1274       O  0.26540565  0.69904838  0.86887021    -0.75800
O1275       O  0.26259075  0.68844639  0.78815839    -0.85300
O1276       O  0.22620174  0.75272715  0.82130811    -0.85000
O1277       O  0.21349240  0.70139284  0.72398719    -0.71700
O1278       O  0.18046709  0.76120874  0.75537429    -0.83900
Zr1279     Zr  0.30116045  0.78961738  0.72658808     2.26400
Zr1280     Zr  0.28218641  0.68616192  0.72486865     2.06300
Zr1281     Zr  0.21377670  0.80900099  0.78888744     2.10000
Zr1282     Zr  0.29382109  0.73673613  0.82166947     1.78800
O1283       O  0.16538284  0.85380542  0.76694593    -0.92700
O1284       O  0.34230949  0.68796907  0.83231654    -0.40500
O1285       O  0.28224156  0.79365034  0.78992518    -0.77100
O1286       O  0.31490312  0.73352320  0.75939197    -0.95800
O1287       O  0.26938205  0.74228164  0.69227247    -0.89100
O1288       O  0.23339868  0.80601982  0.72602249    -0.91900
C1289       C  0.23375983  0.68064578  0.87244303     1.01800
C1290       C  0.13166963  0.76883541  0.82770088     1.14700
C1291       C  0.21497265  0.61861902  0.74744156     1.05500
O1292       O  0.32885941  0.63914293  0.74546812    -0.94100
O1293       O  0.34562937  0.69668086  0.69545960    -0.89800
O1294       O  0.35768466  0.75832863  0.70021649    -0.83000
C1295       C  0.36741806  0.72513479  0.69116781     1.12200
O1296       O  0.13880193  0.72842890  0.68048473    -0.96100
Zr1297     Zr  0.20145075  0.75819616  0.69274119     1.88900
O1298       O  0.29037587  0.81513604  0.66533605    -0.72700
O1299       O  0.27610819  0.66274911  0.66215684    -0.52000
O1300       O  0.20277722  0.72273157  0.63555239    -0.96700
O1301       O  0.15120615  0.80523563  0.68111872    -0.53900
O1302       O  0.22963562  0.79734322  0.64674581    -0.73200
C1303       C  0.26194836  0.81438841  0.64196759     0.99100
O1304       O  0.36618471  0.81661162  0.73343464    -0.62000
O1305       O  0.22356541  0.83821378  0.84878892    -0.56900
O1306       O  0.29905935  0.85448256  0.74300662    -0.93500
O1307       O  0.24858496  0.86738877  0.78155308    -0.92000
O1308       O  0.29503613  0.77377878  0.87784714    -0.92300
O1309       O  0.35783893  0.76369585  0.83351564    -0.91100
C1310       C  0.27876969  0.87681953  0.76293146     1.18000
H1311       H  0.21604740  0.75441910  0.84601039     0.33900
H1312       H  0.34272109  0.72850938  0.76045957     0.44800
H1313       H  0.22911516  0.82965886  0.71441784     0.38300
H1314       H  0.19874455  0.68256607  0.71121313     0.34800
H1315       H  0.34735998  0.68865879  0.85916353     0.26500
H1316       H  0.28844900  0.63788600  0.66280681     0.32500
H1317       H  0.22968802  0.72561048  0.62598978     0.38400
H1318       H  0.26833822  0.77201808  0.88818073     0.32900
H1319       H  0.20679779  0.86070240  0.84815361     0.31700
H1320       H  0.16330478  0.87226615  0.78706342     0.33400
H1321       H  0.16439052  0.82913550  0.68531174     0.32400
H1322       H  0.36186593  0.78065654  0.81265800     0.36400
H1323       H  0.36653006  0.83811307  0.71674604     0.29100
H1324       H  0.12966745  0.65635996  0.79867518     0.33300
H1325       H  0.12917220  0.73883364  0.65693128     0.36200
H1326       H  0.21061223  0.82184582  0.86657631     0.28800
H1327       H  0.36707536  0.82726880  0.75857895     0.41700
H1328       H  0.31627951  0.62758275  0.76690892     0.31700
H1329       H  0.32789499  0.66469094  0.82819169     0.39300
H1330       H  0.13279145  0.80314817  0.70190774     0.31200
H1331       H  0.24775065  0.65803912  0.65870864     0.31300
H1332       H  0.12667139  0.66915027  0.75745586     0.31500
C1333       C  0.48553693  0.80127982  0.61822805     0.87000
C1334       C  0.52650458  0.79781684  0.63537611    -0.53200
C1335       C  0.53559445  0.76356622  0.64881162     0.09900
C1336       C  0.50143747  0.73590893  0.64443090     0.20900
C1337       C  0.48324536  0.77022512  0.58935568    -0.54000
C1338       C  0.49200166  0.73601825  0.60285004     0.10000
C1339       C  0.45772365  0.78974076  0.64846672    -0.53500
C1340       C  0.46538977  0.75535963  0.66189732     0.10600
H1341       H  0.54620386  0.82104727  0.63586799     0.15100
H1342       H  0.50766287  0.70811529  0.65593007     0.00800
H1343       H  0.47539651  0.77494260  0.56073939     0.15400
H1344       H  0.43292191  0.80654137  0.65741684     0.15200
C1345       C  0.40627286  0.72029972  0.67399372    -0.15900
C1346       C  0.43730030  0.73885266  0.68742581    -0.31100
H1347       H  0.40749566  0.70783019  0.64675677     0.13100
H1348       H  0.43471732  0.75224348  0.71415567     0.13700
C1349       C  0.07024671  0.74714712  0.85590344    -0.15900
C1350       C  0.09537253  0.77474293  0.84904812    -0.31100
H1351       H  0.07504286  0.72021043  0.84331411     0.13100
H1352       H  0.08994132  0.80223212  0.86002139     0.13700
C1353       C  0.51218233  0.67242626  0.58497583    -0.15900
C1354       C  0.49007533  0.70277549  0.57908479    -0.31100
H1355       H  0.53362959  0.67202979  0.60722348     0.13100
H1356       H  0.47068159  0.70393496  0.55523451     0.13700
C1357       C  0.44695767  0.52395716  0.32548780    -0.15900
C1358       C  0.41106183  0.51276420  0.31400025    -0.31100
H1359       H  0.46761903  0.53437174  0.30560167     0.13100
H1360       H  0.38954393  0.50466226  0.33420012     0.13700
C1361       C  0.32069671  0.42455762  0.49708575    -0.15900
C1362       C  0.34599884  0.43397424  0.52435661    -0.31100
H1363       H  0.32422777  0.43524780  0.46949216     0.13100
H1364       H  0.34086756  0.42528557  0.55240975     0.13700
C1365       C  0.17620634  0.46026292  0.48729349    -0.15900
C1366       C  0.18697832  0.43657010  0.51411467    -0.31100
H1367       H  0.19370630  0.46338475  0.46273976     0.13100
H1368       H  0.16901866  0.43583514  0.53870253     0.13700
C1369       C  0.43619767  0.47323740  0.15210638    -0.15900
C1370       C  0.43318346  0.50192095  0.17583592    -0.31100
H1371       H  0.42515294  0.44626469  0.15890018     0.13100
H1372       H  0.44788135  0.52751378  0.16922936     0.13700
C1373       C  0.00038277  0.65447351  0.96407924    -0.15900
C1374       C  0.01052658  0.66850159  0.93154039    -0.31100
H1375       H  0.98820069  0.67211592  0.98543637     0.13100
H1376       H  0.02085166  0.65033875  0.90969621     0.13700
C1377       C  0.47399724  0.36786107  0.41525239    -0.15900
C1378       C  0.48792208  0.33733974  0.43167562    -0.31100
H1379       H  0.45650497  0.36595464  0.39023019     0.13100
H1380       H  0.50223234  0.33955785  0.45843264     0.13700
C1381       C  0.47750228  0.83927735  0.60301258    -0.15900
C1382       C  0.50172416  0.85258618  0.57764332    -0.31100
H1383       H  0.45373687  0.85622845  0.61389481     0.13100
H1384       H  0.52552063  0.83494394  0.56778979     0.13700
C1385       C  0.49038816  0.16573207  0.42616307    -0.15900
C1386       C  0.48267433  0.19912622  0.44086812    -0.31100
H1387       H  0.49824195  0.16329509  0.39733952     0.13100
H1388       H  0.47716858  0.20187168  0.47016883     0.13700
C1389       C  0.31220428  0.10369788  0.01553091    -0.15900
C1390       C  0.33235970  0.08807569  0.98773625    -0.31100
H1391       H  0.31816567  0.09624324  0.04392714     0.13100
H1392       H  0.32505449  0.09510370  0.95947172     0.13700
C1393       C  0.05267020  0.01295328  0.34566512    -0.15900
C1394       C  0.08189199  0.99188728  0.33166758    -0.31100
H1395       H  0.04014797  0.03499958  0.32902890     0.13100
H1396       H  0.09345555  0.96947940  0.34844160     0.13700
C1397       C  0.30891798  0.42235305  0.22196146    -0.15900
C1398       C  0.32122974  0.44655248  0.24809388    -0.31100
H1399       H  0.31467324  0.42795445  0.19321374     0.13100
H1400       H  0.31333116  0.44266923  0.27666273     0.13700
C1401       C  0.22935839  0.31224246  0.41990203    -0.15900
C1402       C  0.23863921  0.34697272  0.43097873    -0.31100
H1403       H  0.22006179  0.29189540  0.43964647     0.13100
H1404       H  0.24586673  0.36748211  0.41052539     0.13700
C1405       C  0.39192747  0.29828178  0.33854711    -0.15900
C1406       C  0.41832892  0.27025445  0.33962164    -0.31100
H1407       H  0.39461625  0.32149830  0.35744649     0.13100
H1408       H  0.41409636  0.24597331  0.32240838     0.13700
C1409       C  0.16414101  0.10960524  0.28314505    -0.15900
C1410       C  0.16010502  0.08281548  0.25698337    -0.31100
H1411       H  0.15695583  0.10381262  0.31147965     0.13100
H1412       H  0.16922758  0.08839747  0.22904421     0.13700
C1413       C  0.23272920  0.19025773  0.07462360    -0.15900
C1414       C  0.23987804  0.22518236  0.08571175    -0.31100
H1415       H  0.22471212  0.16972157  0.09478385     0.13100
H1416       H  0.24988171  0.24552480  0.06623420     0.13700
C1417       C  0.01761900  0.81817094  0.98223189    -0.15900
C1418       C  0.99010786  0.80495598  0.95877117    -0.31100
H1419       H  0.04482567  0.80301178  0.98699445     0.13100
H1420       H  0.96270623  0.82033867  0.95571893     0.13700
C1421       C  0.16793239  0.08271703  0.02630344    -0.15900
C1422       C  0.18348540  0.09732897  0.99603428    -0.31100
H1423       H  0.17602486  0.09305949  0.05338089     0.13100
H1424       H  0.17201909  0.08903554  0.96925247     0.13700
C1425       C  0.09221821  0.98266112  0.16287295    -0.15900
C1426       C  0.08132996  0.00569910  0.19057114    -0.31100
H1427       H  0.11386678  0.96118292  0.16861273     0.13100
H1428       H  0.05721192  0.02503307  0.18608123     0.13700
C1429       C  0.99229944  0.31693354  0.02557273    -0.15900
C1430       C  0.98050214  0.30713735  0.05954779    -0.31100
H1431       H  0.00454412  0.29658484  0.00676216     0.13100
H1432       H  0.96988020  0.32819722  0.07850644     0.13700
C1433       C  0.04736832  0.25295578  0.15460424    -0.15900
C1434       C  0.07332017  0.22880953  0.16939878    -0.31100
H1435       H  0.04868928  0.28207270  0.16178131     0.13100
H1436       H  0.07117447  0.19960668  0.16298289     0.13700
C1437       C  0.99420859  0.15677766  0.02391223    -0.15900
C1438       C  0.99595082  0.16575430  0.05986047    -0.31100
H1439       H  0.98645549  0.17696315  0.00312035     0.13100
H1440       H  0.00068706  0.14400708  0.07991584     0.13700
C1441       C  0.00170148  0.33678560  0.58033454    -0.15900
C1442       C  0.97245270  0.35284014  0.56076006    -0.31100
H1443       H  0.02888414  0.35170646  0.58461831     0.13100
H1444       H  0.94437026  0.33922546  0.55766038     0.13700
C1445       C  0.98117931  0.16690878  0.58866959    -0.15900
C1446       C  0.99843302  0.19729603  0.57550752    -0.31100
H1447       H  0.96203421  0.16881037  0.61235262     0.13100
H1448       H  0.01487843  0.19568937  0.55004699     0.13700
C1449       C  0.08304668  0.22404720  0.67060759    -0.15900
C1450       C  0.05712156  0.25202455  0.67525565    -0.31100
H1451       H  0.07832279  0.20369033  0.64897402     0.13100
H1452       H  0.06286010  0.27319420  0.69585250     0.13700
C1453       C  0.22284716  0.31391290  0.58554692    -0.15900
C1454       C  0.25432149  0.32625945  0.56767481    -0.31100
H1455       H  0.19338709  0.32065121  0.57593441     0.13100
H1456       H  0.28342259  0.32086656  0.57904368     0.13700
C1457       C  0.25164668  0.20070884  0.93567462    -0.15900
C1458       C  0.26364949  0.18419026  0.90432808    -0.31100
H1459       H  0.24188116  0.22937133  0.93574024     0.13100
H1460       H  0.27463241  0.15591064  0.90493680     0.13700
C1461       C  0.49644443  0.31913220  0.92195213    -0.15900
C1462       C  0.49069109  0.33205012  0.95621838    -0.31100
H1463       H  0.50495726  0.33806640  0.90046159     0.13100
H1464       H  0.48044880  0.31384862  0.97757264     0.13700
C1465       C  0.50381085  0.16825440  0.96659228    -0.15900
C1466       C  0.47742407  0.18095760  0.94183712    -0.31100
H1467       H  0.52979184  0.18404834  0.97348599     0.13100
H1468       H  0.45105444  0.16495808  0.93688307     0.13700
C1469       C  0.42542748  0.24950464  0.83446322    -0.15900
C1470       C  0.40018012  0.27821301  0.83142320    -0.31100
H1471       H  0.41972533  0.22434706  0.81896831     0.13100
H1472       H  0.40484765  0.30325812  0.84740334     0.13700
C1473       C  0.57706568  0.00233291  0.33059301    -0.15900
C1474       C  0.53847861  0.00255525  0.33930757    -0.31100
H1475       H  0.59817039  0.00392297  0.35312119     0.13100
H1476       H  0.51626626  0.99924543  0.31810658     0.13700
C1477       C  0.56661968  0.00337436  0.18861602    -0.15900
C1478       C  0.57597707  0.02496296  0.15992766    -0.31100
H1479       H  0.54281345  0.98383659  0.18563338     0.13100
H1480       H  0.59721153  0.04680852  0.16379954     0.13700
C1481       C  0.66026213  0.09696099  0.22065099    -0.15900
C1482       C  0.66310583  0.07420167  0.24980758    -0.31100
H1483       H  0.64380585  0.08867058  0.19634762     0.13100
H1484       H  0.67913556  0.08354742  0.27402787     0.13700
C1485       C  0.57570753  0.24281090  0.33152799    -0.15900
C1486       C  0.55158374  0.27063116  0.34225428    -0.31100
H1487       H  0.57113118  0.21506700  0.34151553     0.13100
H1488       H  0.55526703  0.29816191  0.33123523     0.13700
C1489       C  0.89662636  0.26742534  0.15827543    -0.15900
C1490       C  0.91398599  0.23614994  0.14644517    -0.31100
H1491       H  0.90679791  0.29412025  0.14910024     0.13100
H1492       H  0.90115086  0.20983289  0.15371902     0.13700
C1493       C  0.92136800  0.51287681  0.30194622    -0.15900
C1494       C  0.90903761  0.52216332  0.33592560    -0.31100
H1495       H  0.95205060  0.50567915  0.29775334     0.13100
H1496       H  0.87874415  0.53085658  0.33983287     0.13700
C1497       C  0.89844156  0.49179967  0.16501164    -0.15900
C1498       C  0.92397294  0.51386915  0.14789971    -0.31100
H1499       H  0.88478690  0.46929002  0.14994861     0.13100
H1500       H  0.93467281  0.53823140  0.16225142     0.13700
C1501       C  0.82160051  0.43087178  0.24128327    -0.15900
C1502       C  0.81838088  0.40567784  0.26846251    -0.31100
H1503       H  0.80967935  0.42467853  0.21418096     0.13100
H1504       H  0.82805644  0.41231124  0.29616414     0.13700
C1505       C  0.26640973  0.83421247  0.60687103    -0.15900
C1506       C  0.24423748  0.82486868  0.57763495    -0.31100
H1507       H  0.28873296  0.85523848  0.60449835     0.13100
H1508       H  0.22434113  0.80170273  0.57958889     0.13700
C1509       C  0.18981186  0.92653273  0.52090555    -0.15900
C1510       C  0.16153055  0.92348401  0.54632525    -0.31100
H1511       H  0.18636386  0.94715995  0.49949985     0.13100
H1512       H  0.16381288  0.90257532  0.56755272     0.13700
C1513       C  0.34861473  0.91523327  0.48540584    -0.15900
C1514       C  0.32385873  0.90694264  0.51296867    -0.31100
H1515       H  0.34154504  0.90770920  0.45725312     0.13100
H1516       H  0.32997763  0.91658343  0.54074275     0.13700
C1517       C  0.23883955  0.82143338  0.44046981    -0.15900
C1518       C  0.21659098  0.82970862  0.41090101    -0.31100
H1519       H  0.26056686  0.79932562  0.43832003     0.13100
H1520       H  0.19451166  0.85136862  0.41176486     0.13700
C1521       C  0.33028092  0.57956092  0.23323522    -0.15900
C1522       C  0.30307413  0.59104825  0.25768631    -0.31100
H1523       H  0.33749829  0.59850200  0.21126989     0.13100
H1524       H  0.29343564  0.57280175  0.27930176     0.13700
C1525       C  0.20838270  0.92939055  0.26876279    -0.15900
C1526       C  0.18726343  0.95020005  0.24482106    -0.31100
H1527       H  0.20845501  0.93753879  0.29756529     0.13100
H1528       H  0.18634745  0.94261426  0.21589686     0.13700
C1529       C  0.09403578  0.72749648  0.33580507    -0.15900
C1530       C  0.06579721  0.75344600  0.33275858    -0.31100
H1531       H  0.09090222  0.70469698  0.35477004     0.13100
H1532       H  0.06989871  0.77649383  0.31423088     0.13700
C1533       C  0.00003207  0.68592234  0.42161229    -0.15900
C1534       C  0.02619605  0.65909890  0.41277872    -0.31100
H1535       H  0.97704063  0.68023129  0.44125079     0.13100
H1536       H  0.05134262  0.66544695  0.39590367     0.13700
C1537       C  0.03047432  0.85240055  0.43747983    -0.15900
C1538       C  0.00469055  0.82442047  0.43830682    -0.31100
H1539       H  0.05625878  0.85108453  0.42045065     0.13100
H1540       H  0.97953649  0.82665625  0.45641258     0.13700
C1541       C  0.74954232  0.20982174  0.40799801    -0.15900
C1542       C  0.73013667  0.17920703  0.41787217    -0.31100
H1543       H  0.77120367  0.22193150  0.42637850     0.13100
H1544       H  0.70790622  0.16816630  0.39940706     0.13700
C1545       C  0.84725723  0.09086603  0.47459151    -0.15900
C1546       C  0.81943512  0.10021125  0.49902094    -0.31100
H1547       H  0.84225789  0.09594046  0.44554398     0.13100
H1548       H  0.82345905  0.09326688  0.52782945     0.13700
C1549       C  0.68164713  0.08068828  0.49882606    -0.15900
C1550       C  0.65816823  0.08632735  0.52805427    -0.31100
H1551       H  0.67203547  0.06232725  0.47684268     0.13100
H1552       H  0.66676444  0.10516635  0.54998287     0.13700
C1553       C  0.17277006  0.56631085  0.76382365    -0.15900
C1554       C  0.19985858  0.58068087  0.74136969    -0.31100
H1555       H  0.16550205  0.58124243  0.78894005     0.13100
H1556       H  0.20846197  0.56570187  0.71669027     0.13700
C1557       C  0.16230486  0.42761752  0.73517105    -0.15900
C1558       C  0.19925900  0.41607707  0.74317710    -0.31100
H1559       H  0.14090675  0.40754856  0.72583341     0.13100
H1560       H  0.22057221  0.43548069  0.75382519     0.13700
C1561       C  0.07518916  0.50959857  0.67723650    -0.15900
C1562       C  0.07584660  0.48371536  0.65026236    -0.31100
H1563       H  0.06078674  0.53590932  0.67165091     0.13100
H1564       H  0.09238985  0.45828795  0.65464014     0.13700
C1565       C  0.06523782  0.48543835  0.80569791    -0.15900
C1566       C  0.07107939  0.45994040  0.83233768    -0.31100
H1567       H  0.04355183  0.50707152  0.81070817     0.13100
H1568       H  0.09308722  0.43837916  0.82846098     0.13700
C1569       C  0.24437401  0.67427910  0.93854588    -0.15900
C1570       C  0.22783378  0.66141839  0.90752075    -0.31100
H1571       H  0.26124990  0.69958372  0.93780485     0.13100
H1572       H  0.20809591  0.63809144  0.90831513     0.13700
C1573       C  0.16899528  0.58441906  0.00382582    -0.15900
C1574       C  0.15464075  0.57150350  0.97173421    -0.31100
H1575       H  0.15469339  0.57667733  0.02924212     0.13100
H1576       H  0.16585160  0.58119110  0.94568753     0.13700
C1577       C  0.30382337  0.57950640  0.99407186    -0.15900
C1578       C  0.32848927  0.56542259  0.01948390    -0.31100
H1579       H  0.30878220  0.57468309  0.96495958     0.13100
H1580       H  0.32268091  0.56935763  0.04856314     0.13700
C1581       C  0.24301836  0.67824766  0.07585785    -0.15900
C1582       C  0.26936114  0.67481222  0.10364871    -0.31100
H1583       H  0.21927966  0.69838530  0.07828025     0.13100
H1584       H  0.29332903  0.65510902  0.10282433     0.13700
C1585       C  0.74817505  0.31838631  0.06355051    -0.15900
C1586       C  0.73080152  0.28770219  0.07587568    -0.31100
H1587       H  0.76276469  0.33700241  0.08265084     0.13100
H1588       H  0.71433148  0.27005288  0.05725375     0.13700
C1589       C  0.83324360  0.40706836  0.01335224    -0.15900
C1590       C  0.81392114  0.39622211  0.98299089    -0.31100
H1591       H  0.82460371  0.39738128  0.04028216     0.13100
H1592       H  0.82510965  0.40334405  0.95604219     0.13700
C1593       C  0.68454733  0.41086275  0.00062263    -0.15900
C1594       C  0.66420881  0.42608771  0.97271195    -0.31100
H1595       H  0.67928787  0.41902456  0.02896959     0.13100
H1596       H  0.67047381  0.41803399  0.94449377     0.13700
C1597       C  0.29260495  0.91562109  0.76516419    -0.15900
C1598       C  0.31911534  0.92777857  0.74079781    -0.31100
H1599       H  0.28396342  0.93290917  0.78829723     0.13100
H1600       H  0.32619977  0.91001085  0.71750948     0.13700
C1601       C  0.29578074  0.08011214  0.73841014    -0.15900
C1602       C  0.33224975  0.06873003  0.74881464    -0.31100
H1603       H  0.27566217  0.06050855  0.72610427     0.13100
H1604       H  0.35272759  0.08890930  0.75964125     0.13700
C1605       C  0.41155747  0.00152882  0.82188437    -0.15900
C1606       C  0.41685033  0.97588327  0.84856631    -0.31100
H1607       H  0.42126513  0.02962549  0.82664538     0.13100
H1608       H  0.40950988  0.94736960  0.84279991     0.13700
C1609       C  0.44757437  0.02341453  0.67437351    -0.15900
C1610       C  0.43292566  0.99355415  0.69127908    -0.31100
H1611       H  0.44167040  0.05100227  0.68494483     0.13100
H1612       H  0.44042762  0.96680788  0.67925967     0.13700
C1613       C  0.43110096  0.75771642  0.16550101    -0.15900
C1614       C  0.40611194  0.78686774  0.16742029    -0.31100
H1615       H  0.42591031  0.73379381  0.18261007     0.13100
H1616       H  0.41019568  0.81068053  0.14990056     0.13700
C1617       C  0.47674635  0.68074917  0.06057965    -0.15900
C1618       C  0.50035308  0.66791278  0.03375665    -0.31100
H1619       H  0.45215460  0.66385345  0.06874497     0.13100
H1620       H  0.52437132  0.68463076  0.02402905     0.13700
C1621       C  0.48691811  0.83283736  0.03753957    -0.15900
C1622       C  0.49450147  0.82094472  0.07183490    -0.31100
H1623       H  0.47578719  0.81404386  0.01668724     0.13100
H1624       H  0.50399753  0.84065377  0.09262829     0.13700
C1625       C  0.68403384  0.92303531  0.99676991    -0.15900
C1626       C  0.65786112  0.92038278  0.02406294    -0.31100
H1627       H  0.67934729  0.94287507  0.97484548     0.13100
H1628       H  0.66131497  0.89912092  0.04481505     0.13700
C1629       C  0.82045919  0.91131533  0.99614167    -0.15900
C1630       C  0.85467334  0.90468223  0.97869576    -0.31100
H1631       H  0.81885655  0.93149407  0.01831262     0.13100
H1632       H  0.85699103  0.88330990  0.95780890     0.13700
C1633       C  0.73024430  0.83848786  0.08318582    -0.15900
C1634       C  0.74855167  0.82464424  0.05342365    -0.31100
H1635       H  0.71219338  0.86329300  0.08120679     0.13100
H1636       H  0.76377302  0.79814648  0.05495806     0.13700
C1637       C  0.69422366  0.92280150  0.25814384    -0.15900
C1638       C  0.66816472  0.94197400  0.23717595    -0.31100
H1639       H  0.70113368  0.93323254  0.28549523     0.13100
H1640       H  0.66299303  0.93343352  0.20888941     0.13700
C1641       C  0.93017314  0.75711640  0.33984829    -0.15900
C1642       C  0.90428952  0.78452881  0.33137939    -0.31100
H1643       H  0.92584065  0.72956194  0.32868622     0.13100
H1644       H  0.90952647  0.81258686  0.34059814     0.13700
C1645       C  0.79334847  0.58812917  0.24869837    -0.15900
C1646       C  0.80918812  0.56435218  0.22416483    -0.31100
H1647       H  0.79676568  0.58179462  0.27773091     0.13100
H1648       H  0.80679631  0.56986198  0.19491760     0.13700
C1649       C  0.59408448  0.72635737  0.15374312    -0.15900
C1650       C  0.56623489  0.75231908  0.14720971    -0.31100
H1651       H  0.58899064  0.69790498  0.14573328     0.13100
H1652       H  0.57077337  0.78039722  0.15689226     0.13700
C1653       C  0.68084327  0.60763666  0.48604483    -0.15900
C1654       C  0.65239031  0.60546261  0.46000746    -0.31100
H1655       H  0.67608958  0.59583900  0.51300353     0.13100
H1656       H  0.65695274  0.61570674  0.43248425     0.13700
C1657       C  0.82165993  0.59315477  0.50546285    -0.15900
C1658       C  0.82584697  0.55656417  0.50038091    -0.31100
H1659       H  0.84712588  0.60921384  0.51356967     0.13100
H1660       H  0.80100861  0.53988999  0.49194515     0.13700
C1661       C  0.77954327  0.67380222  0.38570840    -0.15900
C1662       C  0.77306100  0.68937542  0.41855548    -0.31100
H1663       H  0.78616807  0.64447068  0.38334364     0.13100
H1664       H  0.76781036  0.71900283  0.42052627     0.13700
C1665       C  0.58002591  0.50268783  0.81456663    -0.15900
C1666       C  0.57733488  0.52870731  0.84126452    -0.31100
H1667       H  0.56704261  0.47582290  0.81891608     0.13100
H1668       H  0.58820982  0.55627624  0.83651550     0.13700
C1669       C  0.56061163  0.49510604  0.68287806    -0.15900
C1670       C  0.57181948  0.49663107  0.64739862    -0.31100
H1671       H  0.52993811  0.49273716  0.69018194     0.13100
H1672       H  0.60316128  0.49850701  0.64227289     0.13700
C1673       C  0.68822502  0.41243167  0.73578348    -0.15900
C1674       C  0.65342381  0.42672637  0.74652425    -0.31100
H1675       H  0.70934085  0.43012946  0.72263392     0.13100
H1676       H  0.63161807  0.40845242  0.75787172     0.13700
C1677       C  0.71650590  0.31758208  0.89448877    -0.15900
C1678       C  0.72775273  0.30202615  0.92633208    -0.31100
H1679       H  0.70837631  0.34664638  0.89334913     0.13100
H1680       H  0.73502648  0.27276031  0.92765662     0.13700
C1681       C  0.58547921  0.21504403  0.83718044    -0.15900
C1682       C  0.55991509  0.24265437  0.84515587    -0.31100
H1683       H  0.58023322  0.18719900  0.84663840     0.13100
H1684       H  0.56439697  0.26991317  0.83373080     0.13700
C1685       C  0.92041790  0.25378820  0.66007378    -0.15900
C1686       C  0.89267692  0.27866290  0.66914622    -0.31100
H1687       H  0.91606128  0.22466289  0.66545972     0.13100
H1688       H  0.89779997  0.30791353  0.66556504     0.13700
C1689       C  0.75375268  0.16555563  0.58508229    -0.15900
C1690       C  0.73355189  0.17815194  0.55591922    -0.31100
H1691       H  0.77550610  0.14361733  0.58208237     0.13100
H1692       H  0.71438110  0.20220377  0.55850436     0.13700
C1693       C  0.95346407  0.00386640  0.68007823    -0.15900
C1694       C  0.91465889  0.00340810  0.68763149    -0.31100
H1695       H  0.97479013  0.99878206  0.70181671     0.13100
H1696       H  0.89402674  0.00634413  0.66488535     0.13700
C1697       C  0.93494266  0.98510449  0.84422552    -0.15900
C1698       C  0.90984805  0.00970098  0.82902060    -0.31100
H1699       H  0.94033770  0.95933723  0.82952896     0.13100
H1700       H  0.90290906  0.03468141  0.84447520     0.13700
C1701       C  0.78755708  0.07765120  0.75591021    -0.15900
C1702       C  0.81485054  0.06035912  0.73536269    -0.31100
H1703       H  0.77986043  0.06609092  0.78237904     0.13100
H1704       H  0.82123552  0.07009078  0.70788392     0.13700
C1705       C  0.70731373  0.57545542  0.75044015    -0.15900
C1706       C  0.67594283  0.56592600  0.72965443    -0.31100
H1707       H  0.71729996  0.55748250  0.77247389     0.13100
H1708       H  0.66755774  0.58391372  0.70704233     0.13700
C1709       C  0.74566888  0.66981047  0.58481644    -0.15900
C1710       C  0.76274352  0.68410763  0.55518532    -0.31100
H1711       H  0.72607011  0.64650662  0.58200892     0.13100
H1712       H  0.77973933  0.70922686  0.55801794     0.13700
C1713       C  0.60516073  0.77736276  0.66642465    -0.15900
C1714       C  0.57498269  0.75339434  0.66437702    -0.31100
H1715       H  0.60158187  0.80562134  0.65750136     0.13100
H1716       H  0.57912888  0.72538473  0.67428037     0.13700
C1717       C  0.80628602  0.90659192  0.77031165    -0.15900
C1718       C  0.82177563  0.92957492  0.74529235    -0.31100
H1719       H  0.80969249  0.91329482  0.79927781     0.13100
H1720       H  0.81893843  0.92279168  0.71626966     0.13700
C1721       C  0.74309630  0.82618557  0.91599042    -0.15900
C1722       C  0.77460796  0.80783000  0.90313863    -0.31100
H1723       H  0.71619905  0.82738235  0.89970926     0.13100
H1724       H  0.80254537  0.80845620  0.91771796     0.13700
C1725       C  0.91747664  0.70877213  0.83797464    -0.15900
C1726       C  0.93561696  0.73995610  0.84957138    -0.31100
H1727       H  0.92733734  0.68189067  0.84761332     0.13100
H1728       H  0.92450346  0.76659834  0.84037841     0.13700
loop_ 
_geom_bond_atom_site_label_1 
_geom_bond_atom_site_label_2 
_geom_bond_distance 
_geom_bond_site_symmetry_2 
_ccdc_geom_bond_type 
Zr1           O2   2.440       .  S
Zr1           O3   2.427       .  S
Zr1           O4   2.414       .  S
Zr1           O7   2.378       .  S
Zr1           O9   2.368       .  S
Zr1          O10   2.378       .  S
Zr1          O11   2.392       .  S
Zr1          O12   2.397       .  S
O2           H58   0.991       .  S
O2           H66   0.990       .  S
O3           C23   1.282       .  A
O4           C25   1.279       .  A
O5          Zr15   2.491       .  S
O5           C24   1.293       .  A
O6          Zr14   2.493       .  S
O6           C25   1.294       .  A
O7           C24   1.276       .  A
O8          Zr16   2.384       .  S
O8           C23   1.276       .  A
O9          Zr14   2.386       .  S
O9          Zr16   2.383       .  S
O10         Zr15   2.387       .  S
O10         Zr16   2.376       .  S
O10          H45   0.966       .  S
O11         Zr14   2.393       .  S
O11         Zr31   2.398       .  S
O11          H48   0.966       .  S
O12         Zr15   2.397       .  S
O12         Zr31   2.402       .  S
Zr13         O38   2.444       .  S
Zr13         O32   2.420       .  S
Zr13         O40   2.431       .  S
Zr13         O28   2.436       .  S
Zr13         O19   2.395       .  S
Zr13         O20   2.404       .  S
Zr13         O21   2.385       .  S
Zr13         O22   2.390       .  S
Zr14         O33   2.434       .  S
Zr14         O26   2.435       .  S
Zr14         O27   2.442       .  S
Zr14         O20   2.413       .  S
Zr14         O21   2.407       .  S
Zr15         O17   2.434       .  S
Zr15         O39   2.439       .  S
Zr15         O41   2.458       .  S
Zr15         O19   2.407       .  S
Zr15         O22   2.412       .  S
Zr16         O42   2.435       .  S
Zr16         O43   2.436       .  S
Zr16         O18   2.437       .  S
Zr16         O19   2.378       .  S
Zr16         O20   2.373       .  S
O17          H54   0.990       .  S
O18          H49   0.990       .  S
O18          H63   0.990       .  S
O20          H46   0.964       .  S
O21         Zr31   2.375       .  S
O22         Zr31   2.387       .  S
O22          H47   0.966       .  S
C23        C1722   1.452       .  S
C24        C1725   1.497       .  S
C25        C1717   1.490       .  S
O26          H62   0.990       .  S
O27          C29   1.287       .  A
O28          C29   1.284       .  A
C29        C1713   1.475       .  S
O30         Zr31   2.440       .  S
O30          H59   0.991       .  S
Zr31         O34   2.439       .  S
Zr31         O35   2.440       .  S
Zr31         O36   2.422       .  S
O32          C37   1.278       .  A
O33          H50   0.990       .  S
O33          H65   0.990       .  S
O34          H51   0.990       .  S
O35          H55   0.990       .  S
O35          H64   0.990       .  S
O36          C37   1.282       .  A
C37        C1709   1.471       .  S
O38          H57   0.991       .  S
O38          H61   0.991       .  S
O39          H53   0.990       .  S
O39          H60   0.990       .  S
O40          C44   1.284       .  A
O41          C44   1.288       .  A
O42          H52   0.990       .  S
O43          H56   0.990       .  S
C44        C1705   1.492       .  S
C67          C68   1.544   1_545  S
C67          C73   1.536       .  S
C67          C71   1.548       .  S
C67        C1698   1.537       .  S
C68          H75   1.085       .  S
C68          C69   1.377       .  D
C69          C70   1.549       .  S
C69        C1718   1.509       .  S
C70          C74   1.537   1_565  S
C70          C72   1.544       .  S
C70          H76   1.111       .  S
C71          H77   1.085       .  S
C71          C72   1.375   1_545  D
C72        C1694   1.502   1_565  S
C73          H78   1.086       .  S
C73          C74   1.365       .  D
C74        C1702   1.484       .  S
Zr79         O80   2.444       .  S
Zr79         O81   2.420       .  S
Zr79         O82   2.450       .  S
Zr79         O85   2.445       .  S
Zr79         O87   2.388       .  S
Zr79         O88   2.391       .  S
Zr79         O89   2.404       .  S
Zr79         O90   2.393       .  S
O80         H136   0.990       .  S
O80         H144   0.990       .  S
O81         C101   1.279       .  A
O82         C103   1.286       .  A
O83         Zr93   2.392       .  S
O83         C102   1.277       .  A
O84         Zr92   2.444       .  S
O84         C103   1.286       .  A
O85         C102   1.287       .  A
O86         Zr94   2.400       .  S
O86         C101   1.279       .  A
O87         Zr92   2.395       .  S
O87         Zr94   2.381       .  S
O88         Zr93   2.391       .  S
O88         Zr94   2.378       .  S
O88         H123   0.967       .  S
O89         Zr92   2.408       .  S
O89        Zr109   2.374       .  S
O89         H126   0.965       .  S
O90         Zr93   2.394       .  S
O90        Zr109   2.376       .  S
Zr91        O116   2.447       .  S
Zr91        O110   2.419       .  S
Zr91        O118   2.454       .  S
Zr91        O106   2.415       .  S
Zr91         O97   2.389       .  S
Zr91         O98   2.403       .  S
Zr91         O99   2.386       .  S
Zr91        O100   2.378       .  S
Zr92        O111   2.436       .  S
Zr92        O104   2.436       .  S
Zr92        O105   2.452       .  S
Zr92         O98   2.396       .  S
Zr92         O99   2.384       .  S
Zr93         O95   2.436       .  S
Zr93        O117   2.435       .  S
Zr93        O119   2.433       .  S
Zr93         O97   2.380       .  S
Zr93        O100   2.374       .  S
Zr94        O120   2.436       .  S
Zr94        O121   2.436       .  S
Zr94         O96   2.438       .  S
Zr94         O97   2.392       .  S
Zr94         O98   2.386       .  S
O95         H132   0.990       .  S
O96         H127   0.990       .  S
O96         H141   0.990       .  S
O98         H124   0.969       .  S
O99        Zr109   2.373       .  S
O100       Zr109   2.385       .  S
O100        H125   0.966       .  S
C101       C1689   1.461       .  S
C102       C1686   1.463       .  S
C103       C1701   1.480       .  S
O104        H140   0.990       .  S
O105        C107   1.288       .  A
O106        C107   1.282       .  A
C107       C1681   1.479       .  S
O108       Zr109   2.440       .  S
O108        H137   0.990       .  S
Zr109       O112   2.437       .  S
Zr109       O113   2.439       .  S
Zr109       O114   2.394       .  S
O110        C115   1.281       .  A
O111        H128   0.990       .  S
O111        H143   0.990       .  S
O112        H129   0.990       .  S
O113        H133   0.990       .  S
O113        H142   0.990       .  S
O114        C115   1.278       .  A
C115       C1677   1.449       .  S
O116        H135   0.990       .  S
O116        H139   0.991       .  S
O117        H131   0.990       .  S
O117        H138   0.990       .  S
O118        C122   1.288       .  A
O119        C122   1.284       .  A
O120        H130   0.990       .  S
O121        H134   0.990       .  S
C122       C1673   1.487       .  S
C145        C146   1.531       .  S
C145        C151   1.530       .  S
C145        C149   1.539       .  S
C145       C1706   1.522       .  S
C146        H153   1.084       .  S
C146        C147   1.372       .  D
C147        C148   1.549       .  S
C147       C1665   1.495       .  S
C148        C152   1.547       .  S
C148        C150   1.547       .  S
C148        H154   1.111       .  S
C149        H155   1.084       .  S
C149        C150   1.378       .  D
C150       C1674   1.497       .  S
C151        H156   1.087       .  S
C151        C152   1.364       .  D
C152       C1669   1.501       .  S
C157        C158   1.523       .  S
C157        C163   1.530       .  S
C157        C161   1.529       .  S
C157       C1662   1.498       .  S
C158        H165   1.083       .  S
C158        C159   1.365       .  D
C159        C160   1.547       .  S
C159       C1653   1.485       .  S
C160        C164   1.539       .  S
C160        C162   1.545       .  S
C160        H166   1.110       .  S
C161        H167   1.087       .  S
C161        C162   1.362       .  D
C162       C1710   1.475       .  S
C163        H168   1.087       .  S
C163        C164   1.365       .  D
C164       C1657   1.470       .  S
Zr169       O170   2.442       .  S
Zr169       O171   2.452       .  S
Zr169       O172   2.463       .  S
Zr169       O175   2.439       .  S
Zr169       O177   2.384       .  S
Zr169       O178   2.393       .  S
Zr169       O179   2.413       .  S
Zr169       O180   2.413       .  S
O170        H226   0.990       .  S
O170        H234   0.990       .  S
O171        C191   1.286       .  A
O172        C193   1.288       .  A
O173       Zr183   2.442       .  S
O173        C192   1.287       .  A
O174       Zr182   2.468       .  S
O174        C193   1.291       .  A
O175        C192   1.286       .  A
O176       Zr184   2.390       .  S
O176        C191   1.277       .  A
O177       Zr182   2.400       .  S
O177       Zr184   2.389       .  S
O178       Zr183   2.402       .  S
O178       Zr184   2.377       .  S
O178        H213   0.966       .  S
O179       Zr182   2.404       .  S
O179       Zr199   2.388       .  S
O179        H216   0.965       .  S
O180       Zr183   2.405       .  S
O180       Zr199   2.395       .  S
Zr181       O206   2.440       .  S
Zr181       O200   2.406       .  S
Zr181       O208   2.409       .  S
Zr181       O196   2.408       .  S
Zr181       O187   2.389       .  S
Zr181       O188   2.392       .  S
Zr181       O189   2.383       .  S
Zr181       O190   2.375       .  S
Zr182       O201   2.437       .  S
Zr182       O194   2.434       .  S
Zr182       O195   2.467       .  S
Zr182       O188   2.399       .  S
Zr182       O189   2.387       .  S
Zr183       O185   2.435       .  S
Zr183       O207   2.436       .  S
Zr183       O209   2.484       .  S
Zr183       O187   2.393       .  S
Zr183       O190   2.378       .  S
Zr184       O210   2.436       .  S
Zr184       O211   2.436       .  S
Zr184       O186   2.438       .  S
Zr184       O187   2.391       .  S
Zr184       O188   2.383       .  S
O185        H222   0.990       .  S
O186        H217   0.990       .  S
O186        H231   0.990       .  S
O188        H214   0.968       .  S
O189       Zr199   2.371       .  S
O190       Zr199   2.367       .  S
O190        H215   0.966       .  S
C191       C1633   1.472       .  S
C192       C1649   1.483       .  S
C193       C1637   1.498       .  S
O194        H230   0.990       .  S
O195        C197   1.292       .  A
O196        C197   1.281       .  A
C197       C1642   1.481       .  S
O198       Zr199   2.438       .  S
O198        H227   0.990       .  S
Zr199       O202   2.438       .  S
Zr199       O203   2.440       .  S
Zr199       O204   2.425       .  S
O200        C205   1.277       .  A
O201        H218   0.990       .  S
O201        H233   0.990       .  S
O202        H219   0.990       .  S
O203        H223   0.990       .  S
O203        H232   0.990       .  S
O204        C205   1.283       .  A
C205       C1661   1.457       .  S
O206        H225   0.990       .  S
O206        H229   0.990       .  S
O207        H221   0.990       .  S
O207        H228   0.990       .  S
O208        C212   1.280       .  A
O209        C212   1.293       .  A
O210        H220   0.990       .  S
O211        H224   0.990       .  S
C212       C1645   1.481       .  S
C235        C236   1.520       .  S
C235        C241   1.526       .  S
C235        C239   1.531       .  S
C235       C1721   1.494       .  S
C236        H243   1.084       .  S
C236        C237   1.362       .  D
C237        C238   1.547   1_556  S
C237       C1629   1.482       .  S
C238        C242   1.538   1_554  S
C238        C240   1.538       .  S
C238        H244   1.111       .  S
C239        H245   1.087       .  S
C239        C240   1.364   1_556  D
C240       C1634   1.468       .  S
C241        H246   1.087       .  S
C241        C242   1.363       .  D
C242       C1625   1.463       .  S
C247        C248   1.531       .  S
C247        C253   1.536       .  S
C247        C251   1.538       .  S
C247       C1617   1.515       .  S
C248        H255   1.087       .  S
C248        C249   1.358       .  D
C249        C250   1.536       .  S
C249       C1613   1.477       .  S
C250        C254   1.544       .  S
C250        C252   1.539       .  S
C250        H256   1.111       .  S
C251        H257   1.084       .  S
C251        C252   1.375       .  D
C252       C1622   1.481       .  S
C253        H258   1.084       .  S
C253        C254   1.372       .  D
C254       C1650   1.493       .  S
C259        C260   1.528       .  S
C259        C265   1.525       .  S
C259        C263   1.534       .  S
C259       C1598   1.518       .  S
C260        H267   1.084       .  S
C260        C261   1.371       .  D
C261        C262   1.560   1_565  S
C261       C1605   1.506   1_565  S
C262        C266   1.559   1_545  S
C262        C264   1.559       .  S
C262        H268   1.110       .  S
C263        H269   1.084   1_565  S
C263        C264   1.376   1_565  D
C264       C1602   1.501       .  S
C265        H270   1.088       .  S
C265        C266   1.359       .  D
C266       C1610   1.500       .  S
C271        C272   1.529       .  S
C271        C277   1.523       .  S
C271        C275   1.526       .  S
C271       C1678   1.495       .  S
C272        H279   1.087       .  S
C272        C273   1.359       .  D
C273        C274   1.536   1_556  S
C273       C1590   1.467       .  S
C274        C278   1.533   1_554  S
C274        C276   1.541       .  S
C274        H280   1.111       .  S
C275        H281   1.085       .  S
C275        C276   1.370   1_556  D
C276       C1585   1.471       .  S
C277        H282   1.086       .  S
C277        C278   1.362       .  D
C278       C1593   1.470   1_556  S
C283        C284   1.527       .  S
C283        C289   1.529       .  S
C283        C287   1.528       .  S
C283       C1581   1.511       .  S
C284        H291   1.078       .  S
C284        C285   1.366       .  D
C285        C286   1.539   1_554  S
C285       C1577   1.479   1_554  S
C286        C290   1.541   1_556  S
C286        C288   1.544       .  S
C286        H292   1.110       .  S
C287        H293   1.087       .  S
C287        C288   1.365   1_554  D
C288       C1569   1.473       .  S
C289        H294   1.087       .  S
C289        C290   1.364       .  D
C290       C1573   1.476       .  S
C295        C296   1.530       .  S
C295        C301   1.530       .  S
C295        C299   1.537       .  S
C295       C1553   1.518       .  S
C296        H303   1.087       .  S
C296        C297   1.360       .  D
C297        C298   1.559       .  S
C297       C1565   1.495       .  S
C298        C302   1.559       .  S
C298        C300   1.551       .  S
C298        H304   1.111       .  S
C299        H305   1.084       .  S
C299        C300   1.377       .  D
C300       C1557   1.496       .  S
C301        H306   1.087       .  S
C301        C302   1.364       .  D
C302       C1561   1.497       .  S
C307        C308   1.532       .  S
C307        C313   1.534       .  S
C307        C311   1.530       .  S
C307       C1542   1.506       .  S
C308        H315   1.087       .  S
C308        C309   1.359       .  D
C309        C310   1.533       .  S
C309       C1549   1.471       .  S
C310        C314   1.541       .  S
C310        C312   1.535       .  S
C310        H316   1.110       .  S
C311        H317   1.086       .  S
C311        C312   1.363       .  D
C312       C1690   1.462       .  S
C313        H318   1.085       .  S
C313        C314   1.374       .  D
C314       C1546   1.487       .  S
C319        C320   1.528   1_455  S
C319        C325   1.538       .  S
C319        C323   1.537       .  S
C319       C1538   1.519       .  S
C320        H327   1.085       .  S
C320        C321   1.366       .  D
C321        C322   1.552       .  S
C321       C1641   1.492       .  S
C322        C326   1.534   1_655  S
C322        C324   1.541   1_655  S
C322        H328   1.111       .  S
C323        H329   1.086       .  S
C323        C324   1.369       .  D
C324       C1533   1.481       .  S
C325        H330   1.082       .  S
C325        C326   1.359       .  D
C326       C1530   1.467       .  S
Zr331       O332   2.441       .  S
Zr331       O333   2.440       .  S
Zr331       O334   2.436       .  S
Zr331       O337   2.400       .  S
Zr331       O339   2.370       .  S
Zr331       O340   2.385       .  S
Zr331       O341   2.395       .  S
Zr331       O342   2.405       .  S
O332        H388   0.990       .  S
O332        H396   0.990       .  S
O333        C353   1.285       .  A
O334        C355   1.286       .  A
O335       Zr345   2.471       .  S
O335        C354   1.291       .  A
O336       Zr344   2.469       .  S
O336        C355   1.289       .  A
O337        C354   1.281       .  A
O338       Zr346   2.386       .  S
O338        C353   1.276       .  A
O339       Zr344   2.391       .  S
O339       Zr346   2.388       .  S
O340       Zr345   2.397       .  S
O340       Zr346   2.372       .  S
O340        H375   0.966       .  S
O341       Zr344   2.397       .  S
O341       Zr361   2.391       .  S
O341        H378   0.964       .  S
O342       Zr345   2.406       .  S
O342       Zr361   2.396       .  S
Zr343       O368   2.445       .  S
Zr343       O362   2.416       .  S
Zr343       O370   2.427       .  S
Zr343       O358   2.419       .  S
Zr343       O349   2.392       .  S
Zr343       O350   2.398       .  S
Zr343       O351   2.382       .  S
Zr343       O352   2.384       .  S
Zr344       O363   2.436       .  S
Zr344       O356   2.434       .  S
Zr344       O357   2.442       .  S
Zr344       O350   2.414       .  S
Zr344       O351   2.394       .  S
Zr345       O347   2.434       .  S
Zr345       O369   2.436       .  S
Zr345       O371   2.477       .  S
Zr345       O349   2.395       .  S
Zr345       O352   2.399       .  S
Zr346       O372   2.437       .  S
Zr346       O373   2.435       .  S
Zr346       O348   2.435       .  S
Zr346       O349   2.383       .  S
Zr346       O350   2.383       .  S
O347        H384   0.990       .  S
O348        H379   0.990       .  S
O348        H393   0.990       .  S
O350        H376   0.965       .  S
O351       Zr361   2.370       .  S
O352       Zr361   2.375       .  S
O352        H377   0.966       .  S
C353       C1582   1.468       .  S
C354       C1614   1.489       .  S
C355       C1522   1.501       .  S
O356        H392   0.990       .  S
O357        C359   1.285       .  A
O358        C359   1.285       .  A
C359       C1529   1.475       .  S
O360       Zr361   2.439       .  S
O360        H389   0.991       .  S
Zr361       O364   2.438       .  S
Zr361       O365   2.439       .  S
Zr361       O366   2.421       .  S
O362        C367   1.280       .  A
O363        H380   0.990       .  S
O363        H395   0.990       .  S
O364        H381   0.990       .  S
O365        H385   0.990       .  S
O365        H394   0.990       .  S
O366        C367   1.283       .  A
C367       C1518   1.471       .  S
O368        H387   0.990       .  S
O368        H391   0.990       .  S
O369        H383   0.990       .  S
O369        H390   0.990       .  S
O370        C374   1.284       .  A
O371        C374   1.292       .  A
O372        H382   0.990       .  S
O373        H386   0.990       .  S
C374       C1525   1.484       .  S
C397        C398   1.526       .  S
C397        C403   1.535       .  S
C397        C401   1.527       .  S
C397       C1517   1.508       .  S
C398        H405   1.084       .  S
C398        C399   1.366       .  D
C399        C400   1.547       .  S
C399       C1514   1.489       .  S
C400        C404   1.542       .  S
C400        C402   1.544       .  S
C400        H406   1.111       .  S
C401        H407   1.087       .  S
C401        C402   1.364       .  D
C402       C1506   1.473       .  S
C403        H408   1.084       .  S
C403        C404   1.363       .  D
C404       C1509   1.473       .  S
C409        C410   1.528       .  S
C409        C415   1.532       .  S
C409        C413   1.541       .  S
C409       C1493   1.520       .  S
C410        H417   1.084       .  S
C410        C411   1.367       .  D
C411        C412   1.551       .  S
C411       C1501   1.496       .  S
C412        C416   1.551       .  S
C412        C414   1.541       .  S
C412        H418   1.111       .  S
C413        H419   1.086       .  S
C413        C414   1.370       .  D
C414       C1497   1.489       .  S
C415        H420   1.086       .  S
C415        C416   1.372       .  D
C416       C1646   1.500       .  S
Zr421       O422   2.441       .  S
Zr421       O423   2.437       .  S
Zr421       O424   2.435       .  S
Zr421       O427   2.405       .  S
Zr421       O429   2.379       .  S
Zr421       O430   2.388       .  S
Zr421       O431   2.400       .  S
Zr421       O432   2.404       .  S
O422        H478   0.991       .  S
O422        H486   0.990       .  S
O423        C443   1.282       .  A
O424        C445   1.283       .  A
O425       Zr435   2.430       .  S
O425        C444   1.284       .  A
O426       Zr434   2.450       .  S
O426        C445   1.288       .  A
O427        C444   1.281       .  A
O428       Zr436   2.417       .  S
O428        C443   1.283       .  A
O429       Zr434   2.398       .  S
O429       Zr436   2.380       .  S
O430       Zr435   2.400       .  S
O430       Zr436   2.371       .  S
O430        H465   0.966       .  S
O431       Zr434   2.400       .  S
O431       Zr451   2.392       .  S
O431        H468   0.965       .  S
O432       Zr435   2.400       .  S
O432       Zr451   2.393       .  S
Zr433       O458   2.443       .  S
Zr433       O452   2.435       .  S
Zr433       O460   2.425       .  S
Zr433       O448   2.411       .  S
Zr433       O439   2.395       .  S
Zr433       O440   2.411       .  S
Zr433       O441   2.376       .  S
Zr433       O442   2.374       .  S
Zr434       O453   2.434       .  S
Zr434       O446   2.436       .  S
Zr434       O447   2.454       .  S
Zr434       O440   2.407       .  S
Zr434       O441   2.400       .  S
Zr435       O437   2.435       .  S
Zr435       O459   2.440       .  S
Zr435       O461   2.457       .  S
Zr435       O439   2.388       .  S
Zr435       O442   2.399       .  S
Zr436       O462   2.435       .  S
Zr436       O463   2.436       .  S
Zr436       O438   2.436       .  S
Zr436       O439   2.398       .  S
Zr436       O440   2.382       .  S
O437        H474   0.990       .  S
O438        H469   0.990       .  S
O438        H483   0.990       .  S
O440        H466   0.965       .  S
O441       Zr451   2.382       .  S
O442       Zr451   2.389       .  S
O442        H467   0.965       .  S
C443       C1489   1.480       .  S
C444       C1586   1.469       .  S
C445       C1502   1.483       .  S
O446        H482   0.990       .  S
O447        C449   1.286       .  A
O448        C449   1.280       .  A
C449       C1541   1.482       .  S
O450       Zr451   2.439       .  S
O450        H479   0.990       .  S
Zr451       O454   2.436       .  S
Zr451       O455   2.439       .  S
Zr451       O456   2.421       .  S
O452        C457   1.283       .  A
O453        H470   0.990       .  S
O453        H485   0.990       .  S
O454        H471   0.989       .  S
O455        H475   0.990       .  S
O455        H484   0.990       .  S
O456        C457   1.280       .  A
C457       C1485   1.475       .  S
O458        H477   0.991       .  S
O458        H481   0.990       .  S
O459        H473   0.990       .  S
O459        H480   0.990       .  S
O460        C464   1.284       .  A
O461        C464   1.287       .  A
O462        H472   0.990       .  S
O463        H476   0.990       .  S
C464       C1481   1.493       .  S
C487        C488   1.527       .  S
C487        C493   1.541   1_545  S
C487        C491   1.549       .  S
C487       C1473   1.535       .  S
C488        H495   1.088       .  S
C488        C489   1.360       .  D
C489        C490   1.546       .  S
C489       C1482   1.484       .  S
C490        C494   1.556   1_545  S
C490        C492   1.543       .  S
C490        H496   1.111       .  S
C491        H497   1.084   1_545  S
C491        C492   1.374       .  D
C492       C1477   1.492       .  S
C493        H498   1.086       .  S
C493        C494   1.373       .  D
C494       C1638   1.503       .  S
C499        C500   1.533       .  S
C499        C505   1.531       .  S
C499        C503   1.531       .  S
C499       C1466   1.507       .  S
C500        H507   1.085       .  S
C500        C501   1.369       .  D
C501        C502   1.545       .  S
C501       C1682   1.486       .  S
C502        C506   1.538       .  S
C502        C504   1.541       .  S
C502        H508   1.111       .  S
C503        H509   1.084       .  S
C503        C504   1.375       .  D
C504       C1461   1.485       .  S
C505        H510   1.087       .  S
C505        C506   1.357       .  D
C506       C1469   1.475       .  S
Zr511       O512   2.447       .  S
Zr511       O513   2.427       .  S
Zr511       O514   2.445       .  S
Zr511       O517   2.413       .  S
Zr511       O519   2.381       .  S
Zr511       O520   2.391       .  S
Zr511       O521   2.406       .  S
Zr511       O522   2.402       .  S
O512        H568   0.991       .  S
O512        H576   0.990       .  S
O513        C533   1.279       .  A
O514        C535   1.284       .  A
O515       Zr525   2.465       .  S
O515        C534   1.287       .  A
O516       Zr524   2.450       .  S
O516        C535   1.287       .  A
O517        C534   1.280       .  A
O518       Zr526   2.397       .  S
O518        C533   1.278       .  A
O519       Zr524   2.396       .  S
O519       Zr526   2.382       .  S
O520       Zr525   2.397       .  S
O520       Zr526   2.376       .  S
O520        H555   0.967       .  S
O521       Zr524   2.401       .  S
O521       Zr541   2.389       .  S
O521        H558   0.965       .  S
O522       Zr525   2.396       .  S
O522       Zr541   2.388       .  S
Zr523       O548   2.444       .  S
Zr523       O542   2.437       .  S
Zr523       O550   2.436       .  S
Zr523       O538   2.429       .  S
Zr523       O529   2.396       .  S
Zr523       O530   2.406       .  S
Zr523       O531   2.376       .  S
Zr523       O532   2.385       .  S
Zr524       O543   2.436       .  S
Zr524       O536   2.434       .  S
Zr524       O537   2.446       .  S
Zr524       O530   2.408       .  S
Zr524       O531   2.394       .  S
Zr525       O527   2.434       .  S
Zr525       O549   2.438       .  S
Zr525       O551   2.464       .  S
Zr525       O529   2.394       .  S
Zr525       O532   2.397       .  S
Zr526       O552   2.434       .  S
Zr526       O553   2.434       .  S
Zr526       O528   2.436       .  S
Zr526       O529   2.384       .  S
Zr526       O530   2.389       .  S
O527        H564   0.990       .  S
O528        H559   0.990       .  S
O528        H573   0.990       .  S
O530        H556   0.965       .  S
O531       Zr541   2.375       .  S
O532       Zr541   2.391       .  S
O532        H557   0.965       .  S
C533       C1453   1.464       .  S
C534       C1449   1.484       .  S
C535       C1558   1.486       .  S
O536        H572   0.990       .  S
O537        C539   1.285       .  A
O538        C539   1.283       .  A
C539       C1470   1.487       .  S
O540       Zr541   2.435       .  S
O540        H569   0.990       .  S
Zr541       O544   2.434       .  S
Zr541       O545   2.441       .  S
Zr541       O546   2.401       .  S
O542        C547   1.283       .  A
O543        H560   0.990       .  S
O543        H575   0.990       .  S
O544        H561   0.990       .  S
O545        H565   0.990       .  S
O545        H574   0.989       .  S
O546        C547   1.276       .  A
C547       C1458   1.463       .  S
O548        H567   0.991       .  S
O548        H571   0.991       .  S
O549        H563   0.990       .  S
O549        H570   0.990       .  S
O550        C554   1.285       .  A
O551        C554   1.291       .  A
O552        H562   0.990       .  S
O553        H566   0.990       .  S
C554       C1601   1.493       .  S
C577        C578   1.531   1_655  S
C577        C583   1.527       .  S
C577        C581   1.535       .  S
C577       C1441   1.510   1_655  S
C578        H585   1.087       .  S
C578        C579   1.361       .  D
C579        C580   1.537   1_455  S
C579       C1450   1.472       .  S
C580        C584   1.538       .  S
C580        C582   1.539       .  S
C580        H586   1.110       .  S
C581        H587   1.086   1_655  S
C581        C582   1.369       .  D
C582       C1446   1.476       .  S
C583        H588   1.083       .  S
C583        C584   1.370       .  D
C584       C1685   1.481       .  S
C589        C590   1.523       .  S
C589        C595   1.528   1_655  S
C589        C593   1.533       .  S
C589       C1438   1.495       .  S
C590        H597   1.088       .  S
C590        C591   1.358       .  D
C591        C592   1.542       .  S
C591       C1490   1.477       .  S
C592        C596   1.542   1_655  S
C592        C594   1.550       .  S
C592        H598   1.111       .  S
C593        H599   1.083       .  S
C593        C594   1.372       .  D
C594       C1430   1.480       .  S
C595        H600   1.085       .  S
C595        C596   1.366       .  D
C596       C1433   1.490       .  S
Zr601       O602   2.439       .  S
Zr601       O603   2.420       .  S
Zr601       O604   2.458       .  S
Zr601       O607   2.400       .  S
Zr601       O609   2.376   1_545  S
Zr601       O610   2.398   1_554  S
Zr601       O611   2.389   1_545  S
Zr601       O612   2.400   1_455  S
O602        H658   0.990       .  S
O602        H666   0.990       .  S
O603        C623   1.280       .  A
O604        C625   1.287   1_545  A
O605       Zr615   2.443       .  S
O605        C624   1.285   1_656  A
O606       Zr614   2.472       .  S
O606        C625   1.291       .  A
O607        C624   1.282       .  A
O608       Zr616   2.431   1_545  S
O608        C623   1.284   1_556  A
O609       Zr614   2.398       .  S
O609       Zr616   2.379   1_554  S
O610       Zr615   2.411   1_455  S
O610       Zr616   2.373   1_545  S
O610        H645   0.967       .  S
O611       Zr614   2.402       .  S
O611       Zr631   2.393   1_455  S
O611        H648   0.966   1_455  S
O612       Zr615   2.413   1_554  S
O612       Zr631   2.378   1_545  S
Zr613       O638   2.445   1_655  S
Zr613       O632   2.428       .  S
Zr613       O640   2.418       .  S
Zr613       O628   2.380       .  S
Zr613       O619   2.391   1_655  S
Zr613       O620   2.404   1_655  S
Zr613       O621   2.375   1_556  S
Zr613       O622   2.368       .  S
Zr614       O633   2.435       .  S
Zr614       O626   2.434       .  S
Zr614       O627   2.471       .  S
Zr614       O620   2.405   1_554  S
Zr614       O621   2.392   1_455  S
Zr615       O617   2.435       .  S
Zr615       O639   2.436   1_655  S
Zr615       O641   2.497       .  S
Zr615       O619   2.387   1_645  S
Zr615       O622   2.382   1_545  S
Zr616       O642   2.436   1_565  S
Zr616       O643   2.436       .  S
Zr616       O618   2.437       .  S
Zr616       O619   2.407       .  S
Zr616       O620   2.394       .  S
O617        H654   0.990       .  S
O618        H649   0.990       .  S
O618        H663   0.990   1_556  S
O620        H646   0.967       .  S
O621       Zr631   2.378       .  S
O622       Zr631   2.388   1_556  S
O622        H647   0.965       .  S
C623       C1421   1.473       .  S
C624       C1437   1.479   1_455  S
C625       C1425   1.501       .  S
O626        H662   0.990       .  S
O627        C629   1.290   1_554  A
O628        C629   1.277   1_655  A
C629       C1417   1.483       .  S
O630       Zr631   2.438   1_545  S
O630        H659   0.991       .  S
Zr631       O634   2.436       .  S
Zr631       O635   2.440   1_565  S
Zr631       O636   2.400       .  S
O632        C637   1.284       .  A
O633        H650   0.990       .  S
O633        H665   0.990   1_455  S
O634        H651   0.990       .  S
O635        H655   0.990       .  S
O635        H664   0.990       .  S
O636        C637   1.278   1_554  A
C637       C1630   1.462       .  S
O638        H657   0.990       .  S
O638        H661   0.990       .  S
O639        H653   0.990       .  S
O639        H660   0.990       .  S
O640        C644   1.280       .  A
O641        C644   1.296   1_545  A
O642        H652   0.990       .  S
O643        H656   0.990       .  S
C644       C1697   1.498       .  S
Zr667       O668   2.442       .  S
Zr667       O669   2.424       .  S
Zr667       O670   2.436       .  S
Zr667       O673   2.421       .  S
Zr667       O675   2.382       .  S
Zr667       O676   2.385       .  S
Zr667       O677   2.401       .  S
Zr667       O678   2.398       .  S
O668        H724   0.991       .  S
O668        H732   0.990       .  S
O669        C689   1.282       .  A
O670        C691   1.283       .  A
O671       Zr681   2.440       .  S
O671        C690   1.286       .  A
O672       Zr680   2.467       .  S
O672        C691   1.292       .  A
O673        C690   1.283       .  A
O674       Zr682   2.431       .  S
O674        C689   1.282       .  A
O675       Zr680   2.399       .  S
O675       Zr682   2.382       .  S
O676       Zr681   2.392       .  S
O676       Zr682   2.376       .  S
O676        H711   0.965       .  S
O677       Zr680   2.404       .  S
O677       Zr697   2.389       .  S
O677        H714   0.966       .  S
O678       Zr681   2.396       .  S
O678       Zr697   2.384       .  S
Zr679       O704   2.449       .  S
Zr679       O698   2.456       .  S
Zr679       O706   2.427       .  S
Zr679       O694   2.410       .  S
Zr679       O685   2.404       .  S
Zr679       O686   2.412       .  S
Zr679       O687   2.385       .  S
Zr679       O688   2.384       .  S
Zr680       O699   2.435       .  S
Zr680       O692   2.434       .  S
Zr680       O693   2.471       .  S
Zr680       O686   2.403       .  S
Zr680       O687   2.392       .  S
Zr681       O683   2.436       .  S
Zr681       O705   2.434       .  S
Zr681       O707   2.450       .  S
Zr681       O685   2.389       .  S
Zr681       O688   2.389       .  S
Zr682       O708   2.436       .  S
Zr682       O709   2.435       .  S
Zr682       O684   2.437       .  S
Zr682       O685   2.403       .  S
Zr682       O686   2.397       .  S
O683        H720   0.990       .  S
O684        H715   0.990       .  S
O684        H729   0.990       .  S
O686        H712   0.966       .  S
O687       Zr697   2.380       .  S
O688       Zr697   2.378       .  S
O688        H713   0.966       .  S
C689       C1434   1.471       .  S
C690       C1414   1.479       .  S
C691       C1409   1.492       .  S
O692        H728   0.990       .  S
O693        C695   1.292       .  A
O694        C695   1.280       .  A
C695       C1401   1.484       .  S
O696       Zr697   2.440       .  S
O696        H725   0.990       .  S
Zr697       O700   2.438       .  S
Zr697       O701   2.441       .  S
Zr697       O702   2.399       .  S
O698        C703   1.287       .  A
O699        H716   0.990       .  S
O699        H731   0.990       .  S
O700        H717   0.990       .  S
O701        H721   0.990       .  S
O701        H730   0.990       .  S
O702        C703   1.279       .  A
C703       C1405   1.486       .  S
O704        H723   0.990       .  S
O704        H727   0.990       .  S
O705        H719   0.990       .  S
O705        H726   0.990       .  S
O706        C710   1.283       .  A
O707        C710   1.288       .  A
O708        H718   0.990       .  S
O709        H722   0.990       .  S
C710       C1397   1.480       .  S
C733        C734   1.528   1_565  S
C733        C739   1.532       .  S
C733        C737   1.548       .  S
C733       C1394   1.530       .  S
C734        H741   1.084       .  S
C734        C735   1.369       .  D
C735        C736   1.564       .  S
C735       C1410   1.506       .  S
C736        C740   1.552   1_545  S
C736        C738   1.548       .  S
C736        H742   1.111       .  S
C737        H743   1.086       .  S
C737        C738   1.376   1_565  D
C738       C1426   1.503       .  S
C739        H744   1.086       .  S
C739        C740   1.366       .  D
C740       C1526   1.503       .  S
Zr745       O746   2.440       .  S
Zr745       O747   2.444       .  S
Zr745       O748   2.454       .  S
Zr745       O751   2.446       .  S
Zr745       O753   2.387   1_655  S
Zr745       O754   2.387       .  S
Zr745       O755   2.409   1_545  S
Zr745       O756   2.404       .  S
O746        H802   0.990       .  S
O746        H810   0.990       .  S
O747        C767   1.285       .  A
O748        C769   1.288       .  A
O749       Zr759   2.415       .  S
O749        C768   1.281       .  A
O750       Zr758   2.462       .  S
O750        C769   1.289   1_465  A
O751        C768   1.288       .  A
O752       Zr760   2.409       .  S
O752        C767   1.280   1_455  A
O753       Zr758   2.400   1_545  S
O753       Zr760   2.386       .  S
O754       Zr759   2.392       .  S
O754       Zr760   2.376   1_655  S
O754        H789   0.967       .  S
O755       Zr758   2.402   1_655  S
O755       Zr775   2.388       .  S
O755        H792   0.966       .  S
O756       Zr759   2.396       .  S
O756       Zr775   2.395   1_545  S
Zr757       O782   2.441       .  S
Zr757       O776   2.432       .  S
Zr757       O784   2.460       .  S
Zr757       O772   2.415       .  S
Zr757       O763   2.393   1_565  S
Zr757       O764   2.410   1_565  S
Zr757       O765   2.383       .  S
Zr757       O766   2.375   1_455  S
Zr758       O777   2.435       .  S
Zr758       O770   2.435   1_565  S
Zr758       O771   2.457       .  S
Zr758       O764   2.403   1_565  S
Zr758       O765   2.397       .  S
Zr759       O761   2.437       .  S
Zr759       O783   2.435       .  S
Zr759       O785   2.442   1_655  S
Zr759       O763   2.389   1_655  S
Zr759       O766   2.388   1_545  S
Zr760       O786   2.437       .  S
Zr760       O787   2.436       .  S
Zr760       O762   2.437       .  S
Zr760       O763   2.396       .  S
Zr760       O764   2.383       .  S
O761        H798   0.990   1_545  S
O762        H793   0.990       .  S
O762        H807   0.990       .  S
O764        H790   0.966       .  S
O765       Zr775   2.373   1_455  S
O766       Zr775   2.382       .  S
O766        H791   0.968       .  S
C767       C1445   1.475       .  S
C768       C1545   1.476       .  S
C769       C1693   1.496       .  S
O770        H806   0.990       .  S
O771        C773   1.288       .  A
O772        C773   1.284       .  A
C773       C1510   1.482       .  S
O774       Zr775   2.438       .  S
O774        H803   0.990       .  S
Zr775       O778   2.438       .  S
Zr775       O779   2.438       .  S
Zr775       O780   2.417       .  S
O776        C781   1.283       .  A
O777        H794   0.990       .  S
O777        H809   0.990       .  S
O778        H795   0.990       .  S
O779        H799   0.990       .  S
O779        H808   0.990       .  S
O780        C781   1.282   1_655  A
C781       C1537   1.474       .  S
O782        H801   0.990       .  S
O782        H805   0.990   1_565  S
O783        H797   0.990   1_655  S
O783        H804   0.990       .  S
O784        C788   1.289   1_565  A
O785        C788   1.285       .  A
O786        H796   0.990       .  S
O787        H800   0.990       .  S
C788       C1393   1.495       .  S
C811        C812   1.530       .  S
C811        C817   1.526       .  S
C811        C815   1.533   1_556  S
C811       C1457   1.507       .  S
C812        H819   1.087       .  S
C812        C813   1.360       .  D
C813        C814   1.541   1_556  S
C813       C1422   1.477       .  S
C814        C818   1.536       .  S
C814        C816   1.547       .  S
C814        H820   1.110       .  S
C815        H821   1.084       .  S
C815        C816   1.375       .  D
C816       C1413   1.485       .  S
C817        H822   1.086       .  S
C817        C818   1.363   1_556  D
C818       C1389   1.476       .  S
Zr823       O824   2.446       .  S
Zr823       O825   2.427       .  S
Zr823       O826   2.462       .  S
Zr823       O829   2.409       .  S
Zr823       O831   2.375   1_545  S
Zr823       O832   2.391   1_556  S
Zr823       O833   2.396   1_545  S
Zr823       O834   2.404       .  S
O824        H880   0.991       .  S
O824        H888   0.991       .  S
O825        C845   1.281       .  A
O826        C847   1.286   1_545  A
O827       Zr837   2.446       .  S
O827        C846   1.286   1_554  A
O828       Zr836   2.444       .  S
O828        C847   1.286       .  A
O829        C846   1.282       .  A
O830       Zr838   2.410       .  S
O830        C845   1.278   1_554  A
O831       Zr836   2.397       .  S
O831       Zr838   2.390   1_566  S
O832       Zr837   2.398       .  S
O832       Zr838   2.379       .  S
O832        H867   0.966       .  S
O833       Zr836   2.393       .  S
O833       Zr853   2.385       .  S
O833        H870   0.966       .  S
O834       Zr837   2.399   1_556  S
O834       Zr853   2.380   1_545  S
Zr835       O860   2.443       .  S
Zr835       O854   2.442       .  S
Zr835       O862   2.443       .  S
Zr835       O850   2.432       .  S
Zr835       O841   2.400   1_565  S
Zr835       O842   2.407       .  S
Zr835       O843   2.385   1_554  S
Zr835       O844   2.387   1_565  S
Zr836       O855   2.436       .  S
Zr836       O848   2.434       .  S
Zr836       O849   2.432       .  S
Zr836       O842   2.404   1_556  S
Zr836       O843   2.394       .  S
Zr837       O839   2.435       .  S
Zr837       O861   2.436       .  S
Zr837       O863   2.453       .  S
Zr837       O841   2.399       .  S
Zr837       O844   2.391       .  S
Zr838       O864   2.436       .  S
Zr838       O865   2.435   1_545  S
Zr838       O840   2.439   1_545  S
Zr838       O841   2.399       .  S
Zr838       O842   2.384   1_545  S
O839        H876   0.990       .  S
O840        H871   0.990       .  S
O840        H885   0.990       .  S
O842        H868   0.966       .  S
O843       Zr853   2.379       .  S
O844       Zr853   2.379   1_544  S
O844        H869   0.967       .  S
C845       C1390   1.461       .  S
C846       C1465   1.480       .  S
C847       C1606   1.489       .  S
O848        H884   0.990       .  S
O849        C851   1.284   1_556  A
O850        C851   1.286       .  A
C851       C1621   1.478       .  S
O852       Zr853   2.440   1_545  S
O852        H881   0.990       .  S
Zr853       O856   2.438       .  S
Zr853       O857   2.437   1_565  S
Zr853       O858   2.398       .  S
O854        C859   1.284       .  A
O855        H872   0.990       .  S
O855        H887   0.990       .  S
O856        H873   0.990       .  S
O857        H877   0.990       .  S
O857        H886   0.990       .  S
O858        C859   1.280   1_556  A
C859       C1626   1.478       .  S
O860        H879   0.991       .  S
O860        H883   0.991       .  S
O861        H875   0.990       .  S
O861        H882   0.990       .  S
O862        C866   1.284   1_565  A
O863        C866   1.287       .  A
O864        H874   0.990       .  S
O865        H878   0.990       .  S
C866       C1478   1.488       .  S
Zr889       O890   2.443       .  S
Zr889       O891   2.431       .  S
Zr889       O892   2.459       .  S
Zr889       O895   2.414       .  S
Zr889       O897   2.371       .  S
Zr889       O898   2.398       .  S
Zr889       O899   2.401   1_545  S
Zr889       O900   2.396       .  S
O890        H946   0.990       .  S
O890        H954   0.991       .  S
O891        C911   1.281       .  A
O892        C913   1.288       .  A
O893       Zr903   2.456       .  S
O893        C912   1.288       .  A
O894       Zr902   2.464       .  S
O894        C913   1.288   1_565  A
O895        C912   1.283       .  A
O896       Zr904   2.409       .  S
O896        C911   1.278       .  A
O897       Zr902   2.394   1_545  S
O897       Zr904   2.389       .  S
O898       Zr903   2.408       .  S
O898       Zr904   2.379       .  S
O898        H933   0.965       .  S
O899       Zr902   2.396       .  S
O899       Zr919   2.384       .  S
O899        H936   0.965       .  S
O900       Zr903   2.397       .  S
O900       Zr919   2.371   1_545  S
Zr901       O926   2.442       .  S
Zr901       O920   2.447       .  S
Zr901       O928   2.434       .  S
Zr901       O916   2.423       .  S
Zr901       O907   2.403   1_565  S
Zr901       O908   2.407   1_565  S
Zr901       O909   2.380       .  S
Zr901       O910   2.387       .  S
Zr902       O921   2.437       .  S
Zr902       O914   2.434   1_565  S
Zr902       O915   2.441       .  S
Zr902       O908   2.402   1_565  S
Zr902       O909   2.397       .  S
Zr903       O905   2.436       .  S
Zr903       O927   2.436       .  S
Zr903       O929   2.480       .  S
Zr903       O907   2.392       .  S
Zr903       O910   2.404   1_545  S
Zr904       O930   2.435       .  S
Zr904       O931   2.436       .  S
Zr904       O906   2.436       .  S
Zr904       O907   2.391       .  S
Zr904       O908   2.392       .  S
O905        H942   0.990       .  S
O906        H937   0.990       .  S
O906        H951   0.990       .  S
O908        H934   0.964       .  S
O909       Zr919   2.378       .  S
O910       Zr919   2.389       .  S
O910        H935   0.966       .  S
C911       C1385   1.462       .  S
C912       C1550   1.481       .  S
C913       C1474   1.497       .  S
O914        H950   0.990   1_545  S
O915        C917   1.287       .  A
O916        C917   1.282       .  A
C917       C1513   1.475       .  S
O918       Zr919   2.439       .  S
O918        H947   0.990       .  S
Zr919       O922   2.435       .  S
Zr919       O923   2.439       .  S
Zr919       O924   2.391       .  S
O920        C925   1.286       .  A
O921        H938   0.990       .  S
O921        H953   0.990       .  S
O922        H939   0.990       .  S
O923        H943   0.990       .  S
O923        H952   0.990       .  S
O924        C925   1.276       .  A
C925       C1382   1.465       .  S
O926        H945   0.990       .  S
O926        H949   0.990       .  S
O927        H941   0.989       .  S
O927        H948   0.990       .  S
O928        C932   1.285   1_565  A
O929        C932   1.291       .  A
O930        H940   0.990       .  S
O931        H944   0.990       .  S
C932       C1609   1.502       .  S
C955        C956   1.530       .  S
C955        C961   1.529       .  S
C955        C959   1.528       .  S
C955       C1386   1.509       .  S
C956        H963   1.084       .  S
C956        C957   1.367       .  D
C957        C958   1.547       .  S
C957       C1486   1.493       .  S
C958        C962   1.537       .  S
C958        C960   1.545       .  S
C958        H964   1.110       .  S
C959        H965   1.086       .  S
C959        C960   1.366       .  D
C960       C1378   1.471       .  S
C961        H966   1.087       .  S
C961        C962   1.363       .  D
C962       C1406   1.470       .  S
Zr967       O968   2.442       .  S
Zr967       O969   2.427       .  S
Zr967       O970   2.452       .  S
Zr967       O973   2.393       .  S
Zr967       O975   2.372       .  S
Zr967       O976   2.393   1_554  S
Zr967       O977   2.393   1_655  S
Zr967       O978   2.411   1_655  S
O968       H1024   0.991       .  S
O968       H1032   0.990       .  S
O969        C989   1.281       .  A
O970        C991   1.286       .  A
O971       Zr981   2.465       .  S
O971        C990   1.291   1_456  A
O972       Zr980   2.441       .  S
O972        C991   1.284       .  A
O973        C990   1.279       .  A
O974       Zr982   2.408       .  S
O974        C989   1.281   1_556  A
O975       Zr980   2.386       .  S
O975       Zr982   2.384   1_554  S
O976       Zr981   2.395   1_655  S
O976       Zr982   2.374       .  S
O976       H1011   0.966       .  S
O977       Zr980   2.392   1_455  S
O977       Zr997   2.401       .  S
O977       H1014   0.966       .  S
O978       Zr981   2.402   1_554  S
O978       Zr997   2.387       .  S
Zr979      O1004   2.441       .  S
Zr979       O998   2.439       .  S
Zr979      O1006   2.439       .  S
Zr979       O994   2.430       .  S
Zr979       O985   2.398   1_455  S
Zr979       O986   2.410   1_455  S
Zr979       O987   2.382   1_556  S
Zr979       O988   2.385       .  S
Zr980       O999   2.435   1_655  S
Zr980       O992   2.435       .  S
Zr980       O993   2.407       .  S
Zr980       O986   2.407   1_554  S
Zr980       O987   2.391   1_655  S
Zr981       O983   2.435       .  S
Zr981      O1005   2.435   1_455  S
Zr981      O1007   2.477       .  S
Zr981       O985   2.395   1_455  S
Zr981       O988   2.397       .  S
Zr982      O1008   2.434       .  S
Zr982      O1009   2.436       .  S
Zr982       O984   2.437       .  S
Zr982       O985   2.392       .  S
Zr982       O986   2.384       .  S
O983       H1020   0.990       .  S
O984       H1015   0.990       .  S
O984       H1029   0.990       .  S
O986       H1012   0.965       .  S
O987       Zr997   2.369       .  S
O988       Zr997   2.379   1_556  S
O988       H1013   0.967       .  S
C989       C1589   1.469       .  S
C990       C1429   1.482       .  S
C991       C1498   1.486       .  S
O992       H1028   0.990       .  S
O993        C995   1.279   1_654  A
O994        C995   1.285       .  A
C995       C1373   1.464       .  S
O996       Zr997   2.439       .  S
O996       H1025   0.991       .  S
Zr997      O1000   2.437       .  S
Zr997      O1001   2.440       .  S
Zr997      O1002   2.412       .  S
O998       C1003   1.283       .  A
O999       H1016   0.990   1_455  S
O999       H1031   0.990       .  S
O1000      H1017   0.990       .  S
O1001      H1021   0.990   1_554  S
O1001      H1030   0.990   1_554  S
O1002      C1003   1.282   1_554  A
C1003      C1574   1.479       .  S
O1004      H1023   0.990   1_455  S
O1004      H1027   0.990       .  S
O1005      H1019   0.990       .  S
O1005      H1026   0.990       .  S
O1006      C1010   1.286       .  A
O1007      C1010   1.292       .  A
O1008      H1018   0.990       .  S
O1009      H1022   0.990       .  S
C1010      C1566   1.500       .  S
Zr1033     O1034   2.444       .  S
Zr1033     O1035   2.420       .  S
Zr1033     O1036   2.447       .  S
Zr1033     O1039   2.444       .  S
Zr1033     O1041   2.383       .  S
Zr1033     O1042   2.389   1_556  S
Zr1033     O1043   2.402       .  S
Zr1033     O1044   2.396       .  S
O1034      H1090   0.991       .  S
O1034      H1098   0.991       .  S
O1035      C1055   1.280       .  A
O1036      C1057   1.285       .  A
O1037     Zr1047   2.415   1_556  S
O1037      C1056   1.280       .  A
O1038     Zr1046   2.438       .  S
O1038      C1057   1.285       .  A
O1039      C1056   1.287       .  A
O1040     Zr1048   2.391       .  S
O1040      C1055   1.276   1_554  A
O1041     Zr1046   2.396       .  S
O1041     Zr1048   2.384   1_556  S
O1042     Zr1047   2.391       .  S
O1042     Zr1048   2.381       .  S
O1042      H1077   0.966       .  S
O1043     Zr1046   2.404       .  S
O1043     Zr1063   2.389       .  S
O1043      H1080   0.966       .  S
O1044     Zr1047   2.396   1_556  S
O1044     Zr1063   2.386       .  S
Zr1045     O1070   2.443       .  S
Zr1045     O1064   2.423       .  S
Zr1045     O1072   2.436       .  S
Zr1045     O1060   2.429       .  S
Zr1045     O1051   2.394       .  S
Zr1045     O1052   2.403       .  S
Zr1045     O1053   2.379   1_554  S
Zr1045     O1054   2.380       .  S
Zr1046     O1065   2.434       .  S
Zr1046     O1058   2.434       .  S
Zr1046     O1059   2.448       .  S
Zr1046     O1052   2.400   1_556  S
Zr1046     O1053   2.396       .  S
Zr1047     O1049   2.437       .  S
Zr1047     O1071   2.439       .  S
Zr1047     O1073   2.427       .  S
Zr1047     O1051   2.393       .  S
Zr1047     O1054   2.388       .  S
Zr1048     O1074   2.435       .  S
Zr1048     O1075   2.436       .  S
Zr1048     O1050   2.437       .  S
Zr1048     O1051   2.386       .  S
Zr1048     O1052   2.380       .  S
O1049      H1086   0.990       .  S
O1050      H1081   0.990       .  S
O1050      H1095   0.990       .  S
O1052      H1078   0.965       .  S
O1053     Zr1063   2.385       .  S
O1054     Zr1063   2.386   1_554  S
O1054      H1079   0.966       .  S
C1055      C1594   1.452       .  S
C1056      C1462   1.474       .  S
C1057      C1666   1.483       .  S
O1058      H1094   0.990       .  S
O1059      C1061   1.286   1_556  A
O1060      C1061   1.285       .  A
C1061      C1618   1.484       .  S
O1062     Zr1063   2.439       .  S
O1062      H1091   0.990       .  S
Zr1063     O1066   2.435       .  S
Zr1063     O1067   2.441       .  S
Zr1063     O1068   2.406       .  S
O1064      C1069   1.280       .  A
O1065      H1082   0.990       .  S
O1065      H1097   0.990       .  S
O1066      H1083   0.990       .  S
O1067      H1087   0.990       .  S
O1067      H1096   0.990       .  S
O1068      C1069   1.278   1_556  A
C1069      C1578   1.458       .  S
O1070      H1089   0.990       .  S
O1070      H1093   0.990       .  S
O1071      H1085   0.990       .  S
O1071      H1092   0.990       .  S
O1072      C1076   1.284       .  A
O1073      C1076   1.283       .  A
O1074      H1084   0.990       .  S
O1075      H1088   0.990       .  S
C1076      C1369   1.476       .  S
Zr1099     O1100   2.445       .  S
Zr1099     O1101   2.443       .  S
Zr1099     O1102   2.421       .  S
Zr1099     O1105   2.409       .  S
Zr1099     O1107   2.381   1_655  S
Zr1099     O1108   2.378       .  S
Zr1099     O1109   2.412   1_655  S
Zr1099     O1110   2.396       .  S
O1100      H1156   0.990       .  S
O1100      H1164   0.991       .  S
O1101      C1121   1.283       .  A
O1102      C1123   1.280   1_655  A
O1103     Zr1113   2.448       .  S
O1103      C1122   1.284       .  A
O1104     Zr1112   2.468       .  S
O1104      C1123   1.290       .  A
O1105      C1122   1.281       .  A
O1106     Zr1114   2.431       .  S
O1106      C1121   1.282       .  A
O1107     Zr1112   2.405       .  S
O1107     Zr1114   2.380   1_455  S
O1108     Zr1113   2.396       .  S
O1108     Zr1114   2.376       .  S
O1108      H1143   0.967       .  S
O1109     Zr1112   2.409       .  S
O1109     Zr1129   2.404       .  S
O1109      H1146   0.965       .  S
O1110     Zr1113   2.392       .  S
O1110     Zr1129   2.395   1_655  S
Zr1111     O1136   2.442       .  S
Zr1111     O1130   2.466       .  S
Zr1111     O1138   2.403       .  S
Zr1111     O1126   2.401       .  S
Zr1111     O1117   2.400   1_455  S
Zr1111     O1118   2.414       .  S
Zr1111     O1119   2.373       .  S
Zr1111     O1120   2.371   1_455  S
Zr1112     O1131   2.434       .  S
Zr1112     O1124   2.438       .  S
Zr1112     O1125   2.467       .  S
Zr1112     O1118   2.408       .  S
Zr1112     O1119   2.408       .  S
Zr1113     O1115   2.435       .  S
Zr1113     O1137   2.438       .  S
Zr1113     O1139   2.449       .  S
Zr1113     O1117   2.389       .  S
Zr1113     O1120   2.398       .  S
Zr1114     O1140   2.436       .  S
Zr1114     O1141   2.436   1_655  S
Zr1114     O1116   2.436   1_655  S
Zr1114     O1117   2.398       .  S
Zr1114     O1118   2.395   1_655  S
O1115      H1152   0.990       .  S
O1116      H1147   0.990       .  S
O1116      H1161   0.989       .  S
O1118      H1144   0.965       .  S
O1119     Zr1129   2.378       .  S
O1120     Zr1129   2.381   1_655  S
O1120      H1145   0.964       .  S
C1121      C1494   1.479       .  S
C1122      C1658   1.477       .  S
C1123      C1534   1.485       .  S
O1124      H1160   0.990       .  S
O1125      C1127   1.288       .  A
O1126      C1127   1.280       .  A
C1127      C1365   1.489       .  S
O1128     Zr1129   2.439   1_655  S
O1128      H1157   0.990       .  S
Zr1129     O1132   2.438       .  S
Zr1129     O1133   2.437   1_455  S
Zr1129     O1134   2.441       .  S
O1130      C1135   1.289       .  A
O1131      H1148   0.990       .  S
O1131      H1163   0.990       .  S
O1132      H1149   0.990       .  S
O1133      H1153   0.990       .  S
O1133      H1162   0.990       .  S
O1134      C1135   1.285       .  A
C1135      C1562   1.502       .  S
O1136      H1155   0.990       .  S
O1136      H1159   0.990       .  S
O1137      H1151   0.990       .  S
O1137      H1158   0.990       .  S
O1138      C1142   1.280   1_455  A
O1139      C1142   1.287       .  A
O1140      H1150   0.990       .  S
O1141      H1154   0.990       .  S
C1142      C1442   1.478       .  S
C1165      C1166   1.527       .  S
C1165      C1171   1.522       .  S
C1165      C1169   1.524       .  S
C1165      C1454   1.499       .  S
C1166      H1173   1.087       .  S
C1166      C1167   1.363       .  D
C1167      C1168   1.547       .  S
C1167      C1366   1.483       .  S
C1168      C1172   1.547       .  S
C1168      C1170   1.559       .  S
C1168      H1174   1.110       .  S
C1169      H1175   1.084       .  S
C1169      C1170   1.369       .  D
C1170      C1402   1.493       .  S
C1171      H1176   1.086       .  S
C1171      C1172   1.362       .  D
C1172      C1361   1.480       .  S
Zr1177     O1178   2.442       .  S
Zr1177     O1179   2.432       .  S
Zr1177     O1180   2.434       .  S
Zr1177     O1183   2.396       .  S
Zr1177     O1185   2.373       .  S
Zr1177     O1186   2.392       .  S
Zr1177     O1187   2.397       .  S
Zr1177     O1188   2.405       .  S
O1178      H1234   0.991       .  S
O1178      H1242   0.990       .  S
O1179      C1199   1.282       .  A
O1180      C1201   1.283       .  A
O1181     Zr1191   2.452       .  S
O1181      C1200   1.289       .  A
O1182     Zr1190   2.457       .  S
O1182      C1201   1.289       .  A
O1183      C1200   1.278       .  A
O1184     Zr1192   2.410       .  S
O1184      C1199   1.281       .  A
O1185     Zr1190   2.393       .  S
O1185     Zr1192   2.381       .  S
O1186     Zr1191   2.398       .  S
O1186     Zr1192   2.371       .  S
O1186      H1221   0.966       .  S
O1187     Zr1190   2.395       .  S
O1187     Zr1207   2.398       .  S
O1187      H1224   0.967       .  S
O1188     Zr1191   2.402       .  S
O1188     Zr1207   2.388       .  S
Zr1189     O1214   2.444       .  S
Zr1189     O1208   2.441       .  S
Zr1189     O1216   2.421       .  S
Zr1189     O1204   2.413       .  S
Zr1189     O1195   2.393       .  S
Zr1189     O1196   2.411       .  S
Zr1189     O1197   2.381       .  S
Zr1189     O1198   2.379       .  S
Zr1190     O1209   2.434       .  S
Zr1190     O1202   2.435       .  S
Zr1190     O1203   2.444       .  S
Zr1190     O1196   2.401       .  S
Zr1190     O1197   2.400       .  S
Zr1191     O1193   2.435       .  S
Zr1191     O1215   2.437       .  S
Zr1191     O1217   2.478       .  S
Zr1191     O1195   2.393       .  S
Zr1191     O1198   2.395       .  S
Zr1192     O1218   2.435       .  S
Zr1192     O1219   2.435       .  S
Zr1192     O1194   2.436       .  S
Zr1192     O1195   2.387       .  S
Zr1192     O1196   2.389       .  S
O1193      H1230   0.990       .  S
O1194      H1225   0.990       .  S
O1194      H1239   0.990       .  S
O1196      H1222   0.964       .  S
O1197     Zr1207   2.381       .  S
O1198     Zr1207   2.386       .  S
O1198      H1223   0.966       .  S
C1199      C1377   1.470       .  S
C1200      C1362   1.470       .  S
C1201      C1357   1.489       .  S
O1202      H1238   0.990       .  S
O1203      C1205   1.286       .  A
O1204      C1205   1.280       .  A
C1205      C1654   1.472       .  S
O1206     Zr1207   2.435       .  S
O1206      H1235   0.990       .  S
Zr1207     O1210   2.435       .  S
Zr1207     O1211   2.437       .  S
Zr1207     O1212   2.414       .  S
O1208      C1213   1.282       .  A
O1209      H1226   0.990       .  S
O1209      H1241   0.990       .  S
O1210      H1227   0.990       .  S
O1211      H1231   0.990       .  S
O1211      H1240   0.990       .  S
O1212      C1213   1.281       .  A
C1213      C1353   1.477       .  S
O1214      H1233   0.990       .  S
O1214      H1237   0.991       .  S
O1215      H1229   0.990       .  S
O1215      H1236   0.990       .  S
O1216      C1220   1.280       .  A
O1217      C1220   1.290       .  A
O1218      H1228   0.990       .  S
O1219      H1232   0.990       .  S
C1220      C1670   1.484       .  S
C1243      C1244   1.527       .  S
C1243      C1249   1.531       .  S
C1243      C1247   1.534       .  S
C1243      C1370   1.521       .  S
C1244      H1251   1.088       .  S
C1244      C1245   1.364       .  D
C1245      C1246   1.555       .  S
C1245      C1521   1.497       .  S
C1246      C1250   1.554       .  S
C1246      C1248   1.555       .  S
C1246      H1252   1.110       .  S
C1247      H1253   1.085       .  S
C1247      C1248   1.373       .  D
C1248      C1358   1.496       .  S
C1249      H1254   1.080       .  S
C1249      C1250   1.364       .  D
C1250      C1398   1.495       .  S
C1255      C1256   1.534       .  S
C1255      C1261   1.534   1_655  S
C1255      C1259   1.524   1_655  S
C1255      C1418   1.508       .  S
C1256      H1263   1.087       .  S
C1256      C1257   1.361       .  D
C1257      C1258   1.536   1_655  S
C1257      C1726   1.480       .  S
C1258      C1262   1.544       .  S
C1258      C1260   1.538       .  S
C1258      H1264   1.111       .  S
C1259      H1265   1.084       .  S
C1259      C1260   1.372       .  D
C1260      C1374   1.473       .  S
C1261      H1266   1.084       .  S
C1261      C1262   1.371       .  D
C1262      C1349   1.485       .  S
Zr1267     O1268   2.442       .  S
Zr1267     O1269   2.433       .  S
Zr1267     O1270   2.435       .  S
Zr1267     O1273   2.424       .  S
Zr1267     O1275   2.378       .  S
Zr1267     O1276   2.381       .  S
Zr1267     O1277   2.401       .  S
Zr1267     O1278   2.405       .  S
O1268      H1324   0.991       .  S
O1268      H1332   0.990       .  S
O1269      C1289   1.282       .  A
O1270      C1291   1.285       .  A
O1271     Zr1281   2.441       .  S
O1271      C1290   1.286       .  A
O1272     Zr1280   2.452       .  S
O1272      C1291   1.287       .  A
O1273      C1290   1.284       .  A
O1274     Zr1282   2.415       .  S
O1274      C1289   1.282       .  A
O1275     Zr1280   2.402       .  S
O1275     Zr1282   2.381       .  S
O1276     Zr1281   2.393       .  S
O1276     Zr1282   2.370       .  S
O1276      H1311   0.966       .  S
O1277     Zr1280   2.400       .  S
O1277     Zr1297   2.386       .  S
O1277      H1314   0.966       .  S
O1278     Zr1281   2.400       .  S
O1278     Zr1297   2.394       .  S
Zr1279     O1304   2.442       .  S
Zr1279     O1298   2.440       .  S
Zr1279     O1306   2.420       .  S
Zr1279     O1294   2.425       .  S
Zr1279     O1285   2.400       .  S
Zr1279     O1286   2.402       .  S
Zr1279     O1287   2.379       .  S
Zr1279     O1288   2.378       .  S
Zr1280     O1299   2.436       .  S
Zr1280     O1292   2.435       .  S
Zr1280     O1293   2.454       .  S
Zr1280     O1286   2.398       .  S
Zr1280     O1287   2.394       .  S
Zr1281     O1283   2.435       .  S
Zr1281     O1305   2.437       .  S
Zr1281     O1307   2.453       .  S
Zr1281     O1285   2.393       .  S
Zr1281     O1288   2.388       .  S
Zr1282     O1308   2.437       .  S
Zr1282     O1309   2.434       .  S
Zr1282     O1284   2.436       .  S
Zr1282     O1285   2.396       .  S
Zr1282     O1286   2.383       .  S
O1283      H1320   0.990       .  S
O1284      H1315   0.990       .  S
O1284      H1329   0.990       .  S
O1286      H1312   0.964       .  S
O1287     Zr1297   2.380       .  S
O1288     Zr1297   2.375       .  S
O1288      H1313   0.966       .  S
C1289      C1570   1.473       .  S
C1290      C1350   1.479       .  S
C1291      C1554   1.487       .  S
O1292      H1328   0.990       .  S
O1293      C1295   1.288       .  A
O1294      C1295   1.285       .  A
C1295      C1345   1.477       .  S
O1296     Zr1297   2.439       .  S
O1296      H1325   0.990       .  S
Zr1297     O1300   2.437       .  S
Zr1297     O1301   2.439       .  S
Zr1297     O1302   2.411       .  S
O1298      C1303   1.284       .  A
O1299      H1316   0.990       .  S
O1299      H1331   0.990       .  S
O1300      H1317   0.990       .  S
O1301      H1321   0.990       .  S
O1301      H1330   0.990       .  S
O1302      C1303   1.282       .  A
C1303      C1505   1.478       .  S
O1304      H1323   0.990       .  S
O1304      H1327   0.990       .  S
O1305      H1319   0.990       .  S
O1305      H1326   0.990       .  S
O1306      C1310   1.283       .  A
O1307      C1310   1.286       .  A
O1308      H1318   0.990       .  S
O1309      H1322   0.990       .  S
C1310      C1597   1.488       .  S
C1333      C1334   1.529       .  S
C1333      C1339   1.521       .  S
C1333      C1337   1.536       .  S
C1333      C1381   1.508       .  S
C1334      H1341   1.082       .  S
C1334      C1335   1.368       .  D
C1335      C1336   1.550       .  S
C1335      C1714   1.496       .  S
C1336      C1340   1.548       .  S
C1336      C1338   1.543       .  S
C1336      H1342   1.110       .  S
C1337      H1343   1.086       .  S
C1337      C1338   1.364       .  D
C1338      C1354   1.479       .  S
C1339      H1344   1.087       .  S
C1339      C1340   1.362       .  D
C1340      C1346   1.473       .  S
C1345      H1347   1.087       .  S
C1345      C1346   1.346       .  D
C1346      H1348   1.087       .  S
C1349      H1351   1.086       .  S
C1349      C1350   1.349       .  D
C1350      H1352   1.085       .  S
C1353      H1355   1.086       .  S
C1353      C1354   1.343       .  D
C1354      H1356   1.087       .  S
C1357      H1359   1.085       .  S
C1357      C1358   1.355       .  D
C1358      H1360   1.086       .  S
C1361      H1363   1.086       .  S
C1361      C1362   1.353       .  D
C1362      H1364   1.085       .  S
C1365      H1367   1.085       .  S
C1365      C1366   1.349       .  D
C1366      H1368   1.088       .  S
C1369      H1371   1.081       .  S
C1369      C1370   1.350       .  D
C1370      H1372   1.087       .  S
C1373      H1375   1.085   1_455  S
C1373      C1374   1.340       .  D
C1374      H1376   1.086       .  S
C1377      H1379   1.086       .  S
C1377      C1378   1.340       .  D
C1378      H1380   1.088       .  S
C1381      H1383   1.087       .  S
C1381      C1382   1.338       .  D
C1382      H1384   1.088       .  S
C1385      H1387   1.087       .  S
C1385      C1386   1.343       .  D
C1386      H1388   1.087       .  S
C1389      H1391   1.086       .  S
C1389      C1390   1.345   1_554  D
C1390      H1392   1.087       .  S
C1393      H1395   1.086       .  S
C1393      C1394   1.349   1_545  D
C1394      H1396   1.087       .  S
C1397      H1399   1.086       .  S
C1397      C1398   1.356       .  D
C1398      H1400   1.086       .  S
C1401      H1403   1.084       .  S
C1401      C1402   1.358       .  D
C1402      H1404   1.086       .  S
C1405      H1407   1.087       .  S
C1405      C1406   1.350       .  D
C1406      H1408   1.086       .  S
C1409      H1411   1.083       .  S
C1409      C1410   1.362       .  D
C1410      H1412   1.086       .  S
C1413      H1415   1.086       .  S
C1413      C1414   1.349       .  D
C1414      H1416   1.085       .  S
C1417      H1419   1.086       .  S
C1417      C1418   1.352   1_455  D
C1418      H1420   1.088       .  S
C1421      H1423   1.086       .  S
C1421      C1422   1.340   1_554  D
C1422      H1424   1.088       .  S
C1425      H1427   1.086       .  S
C1425      C1426   1.355   1_565  D
C1426      H1428   1.086       .  S
C1429      H1431   1.085   1_655  S
C1429      C1430   1.353       .  D
C1430      H1432   1.086       .  S
C1433      H1435   1.086       .  S
C1433      C1434   1.348       .  D
C1434      H1436   1.085       .  S
C1437      H1439   1.084       .  S
C1437      C1438   1.346       .  D
C1438      H1440   1.087   1_655  S
C1441      H1443   1.087       .  S
C1441      C1442   1.349   1_455  D
C1442      H1444   1.086       .  S
C1445      H1447   1.086       .  S
C1445      C1446   1.346       .  D
C1446      H1448   1.087   1_655  S
C1449      H1451   1.087       .  S
C1449      C1450   1.348       .  D
C1450      H1452   1.086       .  S
C1453      H1455   1.086       .  S
C1453      C1454   1.341       .  D
C1454      H1456   1.088       .  S
C1457      H1459   1.087       .  S
C1457      C1458   1.348       .  D
C1458      H1460   1.087       .  S
C1461      H1463   1.086       .  S
C1461      C1462   1.343       .  D
C1462      H1464   1.084       .  S
C1465      H1467   1.086       .  S
C1465      C1466   1.347       .  D
C1466      H1468   1.088       .  S
C1469      H1471   1.087       .  S
C1469      C1470   1.347       .  D
C1470      H1472   1.086       .  S
C1473      H1475   1.088       .  S
C1473      C1474   1.355       .  D
C1474      H1476   1.083   1_545  S
C1477      H1479   1.087   1_545  S
C1477      C1478   1.350       .  D
C1478      H1480   1.086       .  S
C1481      H1483   1.085       .  S
C1481      C1482   1.349       .  D
C1482      H1484   1.087       .  S
C1485      H1487   1.084       .  S
C1485      C1486   1.351       .  D
C1486      H1488   1.086       .  S
C1489      H1491   1.086       .  S
C1489      C1490   1.342       .  D
C1490      H1492   1.088       .  S
C1493      H1495   1.087       .  S
C1493      C1494   1.348       .  D
C1494      H1496   1.086       .  S
C1497      H1499   1.086       .  S
C1497      C1498   1.346       .  D
C1498      H1500   1.087       .  S
C1501      H1503   1.086       .  S
C1501      C1502   1.355       .  D
C1502      H1504   1.084       .  S
C1505      H1507   1.086       .  S
C1505      C1506   1.343       .  D
C1506      H1508   1.087       .  S
C1509      H1511   1.087       .  S
C1509      C1510   1.347       .  D
C1510      H1512   1.086       .  S
C1513      H1515   1.084       .  S
C1513      C1514   1.352       .  D
C1514      H1516   1.086       .  S
C1517      H1519   1.088       .  S
C1517      C1518   1.344       .  D
C1518      H1520   1.082       .  S
C1521      H1523   1.087       .  S
C1521      C1522   1.350       .  D
C1522      H1524   1.085       .  S
C1525      H1527   1.086       .  S
C1525      C1526   1.353       .  D
C1526      H1528   1.086       .  S
C1529      H1531   1.086       .  S
C1529      C1530   1.342       .  D
C1530      H1532   1.087       .  S
C1533      H1535   1.087   1_455  S
C1533      C1534   1.350       .  D
C1534      H1536   1.085       .  S
C1537      H1539   1.079       .  S
C1537      C1538   1.349       .  D
C1538      H1540   1.087   1_455  S
C1541      H1543   1.086       .  S
C1541      C1542   1.349       .  D
C1542      H1544   1.086       .  S
C1545      H1547   1.085       .  S
C1545      C1546   1.344       .  D
C1546      H1548   1.086       .  S
C1549      H1551   1.087       .  S
C1549      C1550   1.349       .  D
C1550      H1552   1.087       .  S
C1553      H1555   1.087       .  S
C1553      C1554   1.348       .  D
C1554      H1556   1.086       .  S
C1557      H1559   1.086       .  S
C1557      C1558   1.353       .  D
C1558      H1560   1.084       .  S
C1561      H1563   1.087       .  S
C1561      C1562   1.352       .  D
C1562      H1564   1.086       .  S
C1565      H1567   1.087       .  S
C1565      C1566   1.355       .  D
C1566      H1568   1.086       .  S
C1569      H1571   1.088       .  S
C1569      C1570   1.340       .  D
C1570      H1572   1.086       .  S
C1573      H1575   1.088       .  S
C1573      C1574   1.345   1_554  D
C1574      H1576   1.086       .  S
C1577      H1579   1.086       .  S
C1577      C1578   1.344   1_556  D
C1578      H1580   1.085       .  S
C1581      H1583   1.087       .  S
C1581      C1582   1.352       .  D
C1582      H1584   1.079       .  S
C1585      H1587   1.086       .  S
C1585      C1586   1.346       .  D
C1586      H1588   1.085       .  S
C1589      H1591   1.086       .  S
C1589      C1590   1.340   1_554  D
C1590      H1592   1.088       .  S
C1593      H1595   1.086       .  S
C1593      C1594   1.343   1_554  D
C1594      H1596   1.087       .  S
C1597      H1599   1.086       .  S
C1597      C1598   1.350       .  D
C1598      H1600   1.087       .  S
C1601      H1603   1.084       .  S
C1601      C1602   1.357       .  D
C1602      H1604   1.086       .  S
C1605      H1607   1.086       .  S
C1605      C1606   1.357   1_545  D
C1606      H1608   1.084       .  S
C1609      H1611   1.085       .  S
C1609      C1610   1.350   1_545  D
C1610      H1612   1.089       .  S
C1613      H1615   1.087       .  S
C1613      C1614   1.351       .  D
C1614      H1616   1.086       .  S
C1617      H1619   1.087       .  S
C1617      C1618   1.347       .  D
C1618      H1620   1.086       .  S
C1621      H1623   1.085       .  S
C1621      C1622   1.344       .  D
C1622      H1624   1.086       .  S
C1625      H1627   1.086       .  S
C1625      C1626   1.344   1_556  D
C1626      H1628   1.086       .  S
C1629      H1631   1.086   1_556  S
C1629      C1630   1.350       .  D
C1630      H1632   1.084       .  S
C1633      H1635   1.086       .  S
C1633      C1634   1.345       .  D
C1634      H1636   1.087       .  S
C1637      H1639   1.087       .  S
C1637      C1638   1.355       .  D
C1638      H1640   1.086       .  S
C1641      H1643   1.086       .  S
C1641      C1642   1.356       .  D
C1642      H1644   1.084       .  S
C1645      H1647   1.087       .  S
C1645      C1646   1.348       .  D
C1646      H1648   1.086       .  S
C1649      H1651   1.084       .  S
C1649      C1650   1.350       .  D
C1650      H1652   1.086       .  S
C1653      H1655   1.086       .  S
C1653      C1654   1.352       .  D
C1654      H1656   1.083       .  S
C1657      H1659   1.088       .  S
C1657      C1658   1.343       .  D
C1658      H1660   1.086       .  S
C1661      H1663   1.086       .  S
C1661      C1662   1.336       .  D
C1662      H1664   1.088       .  S
C1665      H1667   1.086       .  S
C1665      C1666   1.351       .  D
C1666      H1668   1.084       .  S
C1669      H1671   1.085       .  S
C1669      C1670   1.350       .  D
C1670      H1672   1.089       .  S
C1673      H1675   1.085       .  S
C1673      C1674   1.349       .  D
C1674      H1676   1.086       .  S
C1677      H1679   1.086       .  S
C1677      C1678   1.342       .  D
C1678      H1680   1.087       .  S
C1681      H1683   1.085       .  S
C1681      C1682   1.351       .  D
C1682      H1684   1.086       .  S
C1685      H1687   1.086       .  S
C1685      C1686   1.340       .  D
C1686      H1688   1.084       .  S
C1689      H1691   1.086       .  S
C1689      C1690   1.340       .  D
C1690      H1692   1.087       .  S
C1693      H1695   1.085   1_545  S
C1693      C1694   1.353       .  D
C1694      H1696   1.086       .  S
C1697      H1699   1.087       .  S
C1697      C1698   1.346   1_565  D
C1698      H1700   1.087       .  S
C1701      H1703   1.087       .  S
C1701      C1702   1.345       .  D
C1702      H1704   1.086       .  S
C1705      H1707   1.086       .  S
C1705      C1706   1.351       .  D
C1706      H1708   1.087       .  S
C1709      H1711   1.086       .  S
C1709      C1710   1.338       .  D
C1710      H1712   1.088       .  S
C1713      H1715   1.081       .  S
C1713      C1714   1.354       .  D
C1714      H1716   1.086       .  S
C1717      H1719   1.085       .  S
C1717      C1718   1.351       .  D
C1718      H1720   1.086       .  S
C1721      H1723   1.088       .  S
C1721      C1722   1.342       .  D
C1722      H1724   1.087       .  S
C1725      H1727   1.086       .  S
C1725      C1726   1.356       .  D
C1726      H1728   1.086       .  S
