geometry optimzed in LAMMPS
_audit_creation_date              2020-11-30 
_audit_creation_method            'lammps2cif' 
_symmetry_space_group_name_H-M    'P1' 
_symmetry_Int_Tables_number       1 
_symmetry_cell_setting            triclinic 
loop_ 
_symmetry_equiv_pos_as_xyz 
  x,y,z 
_cell_length_a                    22.20798502 
_cell_length_b                    25.143357038471827 
_cell_length_c                    36.66851123095256 
_cell_angle_alpha                 90.02945985144778 
_cell_angle_beta                  90.0365258495501 
_cell_angle_gamma                 90.01340815696906 
loop_ 
_atom_site_label 
_atom_site_type_symbol 
_atom_site_fract_x 
_atom_site_fract_y 
_atom_site_fract_z 
_atom_site_charge 
O1          O  0.53888512  0.09604719  0.03774660    -0.57400
C2          C  0.66113503  0.14734705  0.01304114     0.75300
O3          O  0.61530078  0.09740137  0.42581841    -0.58500
C4          C  0.48269444  0.09627952  0.53298713     0.75200
C5          C  0.52504347  0.24022059  0.45774359     0.77600
Cd6        Cd  0.55624612  0.13253041  0.47515326     1.37500
O7          O  0.64773541  0.17882107  0.98747073    -0.57400
O8          O  0.48809982  0.20352261  0.44933069    -0.56200
C9          C  0.59609435  0.05062932  0.43043028     0.77600
O10         O  0.57280989  0.22611391  0.47345357    -0.58500
O11         O  0.62906173  0.10646652  0.01797402    -0.57000
O12         O  0.46314591  0.11758641  0.50388348    -0.57000
O13         O  0.54502972  0.04539890  0.94517063    -0.56200
C14         C  0.34055717  0.46359145  0.31416073     0.86900
C15         C  0.37413731  0.51456206  0.32299235    -0.53300
C16         C  0.43070227  0.50678036  0.33666235     0.09900
C17         C  0.44881051  0.44786278  0.34030823     0.20800
C18         C  0.38119378  0.43183911  0.28954550    -0.54000
C19         C  0.43743403  0.42373999  0.30195634     0.10000
C20         C  0.34124980  0.43258109  0.35019290    -0.53600
C21         C  0.39874517  0.42312336  0.36469849     0.10500
H22         H  0.35683572  0.55351144  0.31557858     0.15000
H23         H  0.49552422  0.44463305  0.35034767     0.00800
H24         H  0.36635633  0.41789327  0.26288495     0.15300
H25         H  0.29962517  0.42143652  0.36364545     0.15100
O26         O  0.81840720  0.13240970  0.08418364    -0.57400
C27         C  0.70394717  0.16206080  0.04006947     0.75300
O28         O  0.68147312  0.18062437  0.15928856    -0.58500
C29         C  0.85601620  0.13347853  0.10984347     0.75200
C30         C  0.74973293  0.31326781  0.08815601     0.77600
Cd31       Cd  0.74765544  0.19961456  0.10438364     1.37500
O32         O  0.71227527  0.13150736  0.06691873    -0.57400
O33         O  0.78836634  0.28189269  0.07479168    -0.56200
C34         C  0.63377354  0.16879259  0.14154094     0.77600
O35         O  0.71748784  0.29459940  0.11358216    -0.58500
O36         O  0.72504880  0.20882589  0.04116890    -0.57000
O37         O  0.84609791  0.16852640  0.13436785    -0.57000
O38         O  0.63838384  0.17125917  0.10741598    -0.56200
O39         O  0.68167930  0.55370333  0.04557148    -0.57400
C40         C  0.59893039  0.41206887  0.48500066     0.75300
O41         O  0.79026957  0.49427459  0.00166414    -0.58500
C42         C  0.67643048  0.54623139  0.07973276     0.75200
C43         C  0.73700997  0.36566429  0.07141887     0.77600
Cd44       Cd  0.69725167  0.45658607  0.02754591     1.37500
O45         O  0.59778421  0.46130434  0.99280522    -0.57400
O46         O  0.68701994  0.38860923  0.07644129    -0.56200
C47         C  0.78707109  0.47267466  0.47039111     0.77600
O48         O  0.77180070  0.38709966  0.04827308    -0.58500
O49         O  0.63994563  0.38523876  0.49992734    -0.57000
O50         O  0.68063045  0.49807010  0.08939745    -0.57000
O51         O  0.73852078  0.44897006  0.46323066    -0.56200
C52         C  0.47228047  0.37310471  0.41564127     0.86900
C53         C  0.50792995  0.40847872  0.44378759    -0.53300
C54         C  0.55771725  0.38593952  0.45856656     0.09900
C55         C  0.57243635  0.33176207  0.44247984     0.20800
C56         C  0.52235557  0.35956715  0.38657452    -0.54000
C57         C  0.57570096  0.34024385  0.40143719     0.10000
C58         C  0.46521672  0.31828913  0.43532626    -0.53600
C59         C  0.51731397  0.29658775  0.44778009     0.10500
H60         H  0.49721399  0.44923187  0.45079799     0.15000
H61         H  0.61424645  0.31419411  0.45391558     0.00800
H62         H  0.51625642  0.36212936  0.35740997     0.15300
H63         H  0.42399836  0.29544738  0.43691016     0.15100
C64         C  0.40672840  0.39930692  0.40380272    -0.02000
O65         O  0.53053078  0.89628409  0.48214647    -0.57400
C66         C  0.40260679  0.85106806  0.51359790     0.75300
O67         O  0.50728862  0.76742622  0.03240404    -0.58500
C68         C  0.58657190  0.89779834  0.98777453     0.75200
C69         C  0.47927145  0.94129131  0.09159677     0.77600
Cd70       Cd  0.51290830  0.86086800  0.04546919     1.37500
O71         O  0.41694334  0.81875249  0.53854875    -0.57400
O72         O  0.52910417  0.94663217  0.07539443    -0.56200
C73         C  0.54541491  0.75208088  0.05554933     0.77600
O74         O  0.46160906  0.89447467  0.09837190    -0.58500
O75         O  0.43407526  0.89239817  0.00912801    -0.57000
O76         O  0.60524430  0.87973698  0.01806512    -0.57000
O77         O  0.57192076  0.78778517  0.07424129    -0.56200
C78         C  0.72566557  0.52593218  0.19645082     0.86900
C79         C  0.72564641  0.55727950  0.16059759    -0.53300
C80         C  0.66856368  0.56743139  0.14594689     0.09900
C81         C  0.61785875  0.54282128  0.16982664     0.20800
C82         C  0.68482047  0.55746099  0.22106278    -0.54000
C83         C  0.62892641  0.56645933  0.20833251     0.10000
C84         C  0.69167375  0.47515305  0.18720293    -0.53600
C85         C  0.63525687  0.48360149  0.17318875     0.10500
H86         H  0.76749824  0.56821976  0.14730157     0.15000
H87         H  0.57137484  0.54689344  0.15949213     0.00800
H88         H  0.69943838  0.57103945  0.24783944     0.15300
H89         H  0.70848115  0.43604302  0.19444135     0.15100
O90         O  0.24559584  0.85763824  0.43906341    -0.57400
C91         C  0.36187388  0.83574547  0.48541997     0.75300
O92         O  0.35885670  0.70506514  0.40813043    -0.58500
C93         C  0.21447740  0.86064137  0.41043769     0.75200
C94         C  0.43675689  0.82572238  0.38159082     0.77600
Cd95       Cd  0.32349555  0.79697389  0.41938506     1.37500
O96         O  0.35678091  0.86537794  0.45779244    -0.57400
O97         O  0.43258701  0.82636298  0.41587062    -0.56200
C98         C  0.32356324  0.68257128  0.43026734     0.77600
O99         O  0.38863844  0.81347892  0.36453768    -0.58500
O100        O  0.34092179  0.78892357  0.48394744    -0.57000
O101        O  0.23097532  0.82992351  0.38456980    -0.57000
O102        O  0.28212301  0.71122717  0.44343343    -0.56200
O103        O  0.47166369  0.52989087  0.01881127    -0.57400
C104        C  0.39226897  0.44540816  0.43095550     0.75300
O105        O  0.27849975  0.50270464  0.00825149    -0.58500
C106        C  0.47052764  0.57932537  0.02612202     0.75200
C107        C  0.33546905  0.62837952  0.44368067     0.77600
Cd108      Cd  0.37336383  0.53478258  0.48357314     1.37500
O109        O  0.38650426  0.43794152  0.46507431    -0.57400
O110        O  0.38616615  0.60665491  0.43855143    -0.56200
C111        C  0.28356082  0.52160729  0.04025791     0.77600
O112        O  0.29893255  0.60371696  0.46413813    -0.58500
O113        O  0.38940399  0.49367040  0.42128628    -0.57000
O114        O  0.43001874  0.60611647  0.01073136    -0.57000
O115        O  0.33436144  0.54033723  0.04855363    -0.56200
C116        C  0.59614425  0.61854067  0.09542607     0.86900
C117        C  0.54587294  0.63318276  0.12420810    -0.53300
C118        C  0.49305372  0.65325442  0.10889994     0.09900
C119        C  0.49699214  0.66062438  0.06774759     0.20800
C120        C  0.56044098  0.58301958  0.06764701    -0.54000
C121        C  0.51129091  0.60580169  0.05242963     0.10000
C122        C  0.60406141  0.67299585  0.07552734    -0.53600
C123        C  0.55260865  0.69494849  0.06255153     0.10500
H124        H  0.55156717  0.63062921  0.15340833     0.15000
H125        H  0.45586883  0.67872578  0.05574975     0.00800
H126        H  0.57070169  0.54196124  0.06123610     0.15300
H127        H  0.64499857  0.69637273  0.07514343     0.15100
C128        C  0.66144589  0.59201004  0.10712255    -0.02000
O129        O  0.65083039  0.31801896  0.22656073    -0.57400
C130        C  0.48009641  0.39878733  0.27665243     0.75300
O131        O  0.60884769  0.39271372  0.16838020    -0.58500
C132        C  0.66474480  0.34932699  0.25221888     0.75200
C133        C  0.52123073  0.25128131  0.21179170     0.77600
Cd134      Cd  0.55461873  0.35983689  0.22044193     1.37500
O135        O  0.53595122  0.39628764  0.28266401    -0.57400
O136        O  0.49877084  0.28619152  0.19061917    -0.56200
C137        C  0.59176507  0.43984985  0.17462409     0.77600
O138        O  0.55553408  0.26738058  0.23683737    -0.58500
O139        O  0.46136332  0.38101143  0.24624044    -0.57000
O140        O  0.63189442  0.38938321  0.25828171    -0.57000
O141        O  0.54200267  0.44606471  0.19080211    -0.56200
C142        C  0.34485175  0.02629214  0.06831017     0.86900
C143        C  0.34376529  0.05653535  0.10473309    -0.53300
C144        C  0.40062578  0.06740235  0.11969487     0.09900
C145        C  0.45200199  0.04439919  0.09569564     0.20800
C146        C  0.38511527  0.05966499  0.04450190    -0.54000
C147        C  0.44061262  0.06924890  0.05761422     0.10000
C148        C  0.37994120  0.97601163  0.07696272    -0.52000
C149        C  0.43576192  0.98503560  0.09153684     0.10500
H150        H  0.30158125  0.06669189  0.11794133     0.15000
H151        H  0.49830191  0.04883781  0.10619363     0.00800
H152        H  0.37058727  0.07383480  0.01783937     0.15300
H153        H  0.36380418  0.93672099  0.06955051     0.15100
O154        O  0.71635401  0.36520189  0.30586190    -0.57400
C155        C  0.85559014  0.36155372  0.35393939     0.75300
O156        O  0.68145833  0.31636634  0.39905541    -0.58500
C157        C  0.70754401  0.33432706  0.27921668     0.75200
C158        C  0.74888545  0.18279829  0.33322352     0.77600
Cd159      Cd  0.74688330  0.29706215  0.34495720     1.37500
O160        O  0.82009582  0.36287876  0.32719866    -0.57400
O161        O  0.78519338  0.21333411  0.31687544    -0.56200
C162        C  0.63291114  0.32665802  0.38188003     0.77600
O163        O  0.71838341  0.20345812  0.35868271    -0.58500
O164        O  0.84328801  0.32664281  0.37806160    -0.57000
O165        O  0.72648302  0.28689115  0.28111949    -0.57000
O166        O  0.63647093  0.32419889  0.34764474    -0.56200
O167        O  0.60102194  0.02722436  0.24345420    -0.57400
C168        C  0.67723334  0.94490908  0.33376073     0.75300
O169        O  0.78907587  0.99819059  0.25547079    -0.58500
C170        C  0.59566855  0.07740760  0.24135406     0.75200
C171        C  0.73682679  0.12839702  0.32003198     0.77600
Cd172      Cd  0.69597528  0.03420951  0.28134229     1.37500
O173        O  0.68268907  0.93766775  0.29961909    -0.57400
O174        O  0.68870677  0.10445882  0.32849174    -0.56200
C175        C  0.78586067  0.02016920  0.22433966     0.77600
O176        O  0.77006050  0.10569580  0.29664839    -0.58500
O177        O  0.68086076  0.99302788  0.34367077    -0.57000
O178        O  0.63025982  0.10450292  0.26116832    -0.57000
O179        O  0.73702987  0.04345713  0.21710901    -0.56200
C180        C  0.47220482  0.11825905  0.17128420     0.86900
C181        C  0.52383041  0.13341281  0.14352165    -0.53300
C182        C  0.57603557  0.15317649  0.15991939     0.09900
C183        C  0.57015594  0.15987568  0.20103409     0.20800
C184        C  0.50690986  0.08217667  0.19920860    -0.54000
C185        C  0.55523271  0.10473760  0.21545950     0.10000
C186        C  0.46340812  0.17220610  0.19159477    -0.53600
C187        C  0.51422756  0.19400319  0.20558281     0.10500
H188        H  0.51952253  0.13141896  0.11425710     0.15000
H189        H  0.61074721  0.17769397  0.21392160     0.00800
H190        H  0.49683039  0.04085164  0.20489922     0.15300
H191        H  0.42253160  0.19566072  0.19131561     0.15100
C192        C  0.40713728  0.09205164  0.15852177    -0.02000
O193        O  0.53107814  0.59723050  0.22692416    -0.57400
C194        C  0.40388314  0.64684040  0.25706435     0.75300
O195        O  0.45538817  0.59793370  0.34012209    -0.58500
C196        C  0.58665120  0.59273731  0.23330876     0.75200
C197        C  0.54739054  0.73932300  0.30529059     0.77600
Cd198      Cd  0.51289637  0.63221817  0.29003096     1.37500
O199        O  0.41831083  0.67703420  0.28320756    -0.57400
O200        O  0.57287470  0.70154427  0.32246299    -0.56200
C201        C  0.47335029  0.55093848  0.33457005     0.77600
O202        O  0.51073722  0.72673799  0.28051839    -0.58500
O203        O  0.43617545  0.60665297  0.25032633    -0.57000
O204        O  0.60547144  0.60986193  0.26385047    -0.57000
O205        O  0.52357485  0.54498564  0.31895154    -0.56200
C206        C  0.72738562  0.96160781  0.45113248     0.86900
C207        C  0.69436947  0.01285899  0.44251684    -0.53300
C208        C  0.63798923  0.00577513  0.42841032     0.09900
C209        C  0.61940971  0.94696517  0.42412242     0.20800
C210        C  0.68606950  0.92958168  0.47513064    -0.54000
C211        C  0.62981243  0.92216333  0.46240153     0.10000
C212        C  0.72717525  0.93123069  0.41486469    -0.53600
C213        C  0.66990531  0.92217471  0.39990957     0.10500
H214        H  0.71196638  0.05152017  0.45033110     0.15000
H215        H  0.57286965  0.94413416  0.41367351     0.00800
H216        H  0.70045708  0.91515537  0.00175485     0.15300
H217        H  0.76899811  0.92006630  0.40165856     0.15100
O218        O  0.25377784  0.63007202  0.18131530    -0.57400
C219        C  0.36066618  0.66280584  0.23059952     0.75300
O220        O  0.38776927  0.67942413  0.11068045    -0.58500
C221        C  0.21503221  0.63390190  0.15641129     0.75200
C222        C  0.32045083  0.81410169  0.17865028     0.77600
Cd223      Cd  0.32245340  0.70017410  0.16478817     1.37500
O224        O  0.35007777  0.63198617  0.20422458    -0.57400
O225        O  0.27972479  0.78403143  0.19119709    -0.56200
C226        C  0.43610717  0.66892806  0.12807827     0.77600
O227        O  0.35512431  0.79371506  0.15511329    -0.58500
O228        O  0.34306665  0.71063575  0.22874873    -0.57000
O229        O  0.22387348  0.67152101  0.13362978    -0.57000
O230        O  0.43264949  0.67301849  0.16223856    -0.56200
O231        O  0.47462194  0.95969223  0.27009450    -0.57400
C232        C  0.39206403  0.04632539  0.18569548     0.75300
O233        O  0.29745407  0.88943181  0.21687121    -0.58500
C234        C  0.47076250  0.91111736  0.27949009     0.75200
C235        C  0.28455549  0.97432026  0.29544091     0.77600
Cd236      Cd  0.37298070  0.95738471  0.23789620     1.37500
O237        O  0.38334216  0.05432481  0.21953975    -0.57400
O238        O  0.33316958  0.95070487  0.30260163    -0.56200
C239        C  0.33281099  0.86700383  0.19449803     0.77600
O240        O  0.28127366  0.99593831  0.26418992    -0.58500
O241        O  0.39281539  0.99783698  0.17644386    -0.57000
O242        O  0.42660674  0.88567925  0.26691057    -0.57000
O243        O  0.38318835  0.88931471  0.18965607    -0.56200
C244        C  0.59758543  0.87199704  0.34841741     0.86900
C245        C  0.56211639  0.90708419  0.32010541    -0.53300
C246        C  0.51257497  0.88433745  0.30514236     0.09900
C247        C  0.49815704  0.82986092  0.32093859     0.20800
C248        C  0.54716986  0.85828146  0.37713464    -0.54000
C249        C  0.49423867  0.83849378  0.36203931     0.10000
C250        C  0.60537704  0.81723800  0.32882278    -0.53600
C251        C  0.55385754  0.79544994  0.31572326     0.10500
H252        H  0.57231652  0.94811210  0.31352026     0.15000
H253        H  0.45687603  0.81156004  0.30927331     0.00800
H254        H  0.55264259  0.86142107  0.40637161     0.15300
H255        H  0.64670936  0.79453405  0.32747610     0.15100
C256        C  0.66270293  0.89860867  0.36063737    -0.02000
O257        O  0.15048301  0.18102641  0.28667325    -0.57400
C258        C  0.98293297  0.09355715  0.23671707     0.75300
O259        O  0.11236669  0.10078331  0.34415517    -0.58500
C260        C  0.16704894  0.14934616  0.26188591     0.75200
C261        C  0.02219235  0.24281065  0.30373885     0.77600
Cd262      Cd  0.05660459  0.13456293  0.29303715     1.37500
O263        O  0.03923138  0.09092925  0.23256812    -0.57400
O264        O  0.99966001  0.20676376  0.32397234    -0.56200
C265        C  0.09388311  0.05386302  0.33865629     0.77600
O266        O  0.05638792  0.22797732  0.27826521    -0.58500
O267        O  0.96374409  0.11773653  0.26480105    -0.57000
O268        O  0.13606530  0.10812728  0.25584945    -0.57000
O269        O  0.04303652  0.04841970  0.32359419    -0.56200
C270        C  0.84357795  0.46580980  0.44786094     0.86900
C271        C  0.84332206  0.43669542  0.41103121    -0.53300
C272        C  0.90039374  0.42702288  0.39612016     0.09900
C273        C  0.95135687  0.44997643  0.42083677     0.20800
C274        C  0.88412730  0.43239182  0.47148141    -0.54000
C275        C  0.94013398  0.42413099  0.45876093     0.10000
C276        C  0.87791363  0.51682745  0.44010456    -0.53600
C277        C  0.93412662  0.50907320  0.42578354     0.10500
H278        H  0.80142242  0.42631109  0.39757557     0.15000
H279        H  0.99784626  0.44634428  0.41044986     0.00800
H280        H  0.86939577  0.41740877  0.99782042     0.15300
H281        H  0.86109573  0.55562370  0.44813600     0.15100
O282        O  0.22260840  0.13225172  0.21020458    -0.57400
C283        C  0.35513962  0.13288098  0.16087989     0.75300
O284        O  0.18066061  0.17857156  0.11534407    -0.58500
C285        C  0.21096789  0.16440242  0.23563488     0.75200
C286        C  0.24714002  0.31298139  0.17932590     0.77600
Cd287      Cd  0.24716159  0.19863539  0.16877366     1.37500
O288        O  0.31569575  0.12867045  0.18530631    -0.57400
O289        O  0.28990632  0.28479400  0.19151410    -0.56200
C290        C  0.13281602  0.16725459  0.13294989     0.77600
O291        O  0.21084274  0.29014776  0.15785834    -0.58500
O292        O  0.34650461  0.17046912  0.13803630    -0.57000
O293        O  0.22756680  0.21239703  0.23258403    -0.57000
O294        O  0.13735726  0.16929807  0.16716063    -0.56200
O295        O  0.18219331  0.55571369  0.21541919    -0.57400
C296        C  0.09783597  0.41544704  0.27606373     0.75300
O297        O  0.27155449  0.39197623  0.21340911    -0.58500
C298        C  0.17757571  0.54755497  0.18129147     0.75200
C299        C  0.28402547  0.47155468  0.29209351     0.77600
Cd300      Cd  0.19574788  0.45912727  0.23432285     1.37500
O301        O  0.09767440  0.46512565  0.26954778    -0.57400
O302        O  0.23609274  0.44637886  0.29820101    -0.56200
C303        C  0.23471885  0.36682128  0.19335292     0.77600
O304        O  0.28681606  0.49613586  0.26188222    -0.58500
O305        O  0.13728321  0.38837637  0.25994966    -0.57000
O306        O  0.18124796  0.49918316  0.17198369    -0.57000
O307        O  0.18323329  0.38752860  0.18926307    -0.56200
C308        C  0.97264167  0.37579502  0.34529827     0.86900
C309        C  0.02293688  0.36047780  0.37391809    -0.53300
C310        C  0.07566493  0.34043518  0.35844515     0.09900
C311        C  0.07146106  0.33369629  0.31718519     0.20800
C312        C  0.00854482  0.41167886  0.31788971    -0.54000
C313        C  0.05733043  0.38885776  0.30234074     0.10000
C314        C  0.96433717  0.32174790  0.32485742    -0.53600
C315        C  0.01556826  0.29980269  0.31158697     0.10500
H316        H  0.01741168  0.36275701  0.40311073     0.15000
H317        H  0.11243109  0.31557189  0.30502052     0.00800
H318        H  0.99860120  0.45294247  0.31192576     0.15300
H319        H  0.92320538  0.29866831  0.32412252     0.15100
C320        C  0.90741774  0.40242788  0.35712288    -0.02000
O321        O  0.03585465  0.88814269  0.28841186    -0.57400
C322        C  0.90686384  0.84639347  0.25700503     0.75300
O323        O  0.95501726  0.89147207  0.17510900    -0.58500
C324        C  0.08975438  0.89903829  0.28057057     0.75200
C325        C  0.04971863  0.75113791  0.20955363     0.77600
Cd326      Cd  0.01593303  0.85842328  0.22411053     1.37500
O327        O  0.92162569  0.81489361  0.23166934    -0.57400
O328        O  0.07540358  0.78854535  0.19212644    -0.56200
C329        C  0.97397132  0.93842356  0.17958460     0.77600
O330        O  0.01349467  0.76416578  0.23437951    -0.58500
O331        O  0.93889230  0.88708031  0.26290993    -0.57000
O332        O  0.10721567  0.88783997  0.24849376    -0.57000
O333        O  0.02576287  0.94425563  0.19330029    -0.56200
C334        C  0.22767673  0.52943926  0.06310091     0.86900
C335        C  0.19344113  0.47840693  0.07061866    -0.53300
C336        C  0.13745741  0.48580995  0.08519736     0.09900
C337        C  0.11999701  0.54473805  0.09044771     0.20800
C338        C  0.18706097  0.56336642  0.03989542    -0.54000
C339        C  0.13100284  0.57090489  0.05278871     0.10000
C340        C  0.22811457  0.55823435  0.10005249    -0.53600
C341        C  0.17090085  0.56793333  0.11489859     0.10500
H342        H  0.21038211  0.43971550  0.06240788     0.15000
H343        H  0.07357546  0.54828165  0.10097982     0.00800
H344        H  0.20171243  0.57908234  0.01368557     0.15300
H345        H  0.27004883  0.56887343  0.11343246     0.15100
O346        O  0.75318059  0.86239962  0.33221475    -0.57400
C347        C  0.86367897  0.83107133  0.28362122     0.75300
O348        O  0.88884353  0.81321111  0.40442688    -0.58500
C349        C  0.71469073  0.85798196  0.35720456     0.75200
C350        C  0.82012457  0.68009262  0.33354021     0.77600
Cd351      Cd  0.82366821  0.79361417  0.34911928     1.37500
O352        O  0.85224459  0.86242847  0.30959784    -0.57400
O353        O  0.78266768  0.71169222  0.31921711    -0.56200
C354        C  0.93725137  0.82440762  0.38734133     0.77600
O355        O  0.85191781  0.69885026  0.35917434    -0.58500
O356        O  0.84674655  0.78312757  0.28590779    -0.57000
O357        O  0.72448392  0.82052839  0.37994936    -0.57000
O358        O  0.93380351  0.82117870  0.35313163    -0.56200
O359        O  0.96992463  0.53004274  0.23940158    -0.57400
C360        C  0.89252196  0.44775301  0.32937598     0.75300
O361        O  0.79733320  0.60491345  0.29502389    -0.58500
C362        C  0.97076578  0.57982414  0.23343753     0.75200
C363        C  0.78263105  0.51897148  0.21845094     0.77600
Cd364      Cd  0.87230841  0.53545762  0.27560923     1.37500
O365        O  0.88826123  0.43953182  0.29521893    -0.57400
O366        O  0.82963181  0.54541406  0.21211702    -0.56200
C367        C  0.83235293  0.62713089  0.31774825     0.77600
O368        O  0.78096780  0.49497298  0.24891056    -0.58500
O369        O  0.88747526  0.49603775  0.33859100    -0.57000
O370        O  0.93183194  0.60694390  0.25002056    -0.57000
O371        O  0.88227569  0.60432904  0.32326608    -0.56200
C372        C  0.09793225  0.61947998  0.16511625     0.86900
C373        C  0.06110987  0.58343279  0.19207494    -0.53300
C374        C  0.01204323  0.60638139  0.20739504     0.09900
C375        C  0.99894676  0.66187826  0.19279128     0.20800
C376        C  0.04826251  0.63542984  0.13622528    -0.54000
C377        C  0.99540104  0.65562402  0.15143081     0.10000
C378        C  0.10641918  0.67297185  0.18611961    -0.53600
C379        C  0.05522170  0.69502428  0.19917439     0.10500
H380        H  0.07092515  0.54215535  0.19803317     0.15000
H381        H  0.95794165  0.68014428  0.20479391     0.00800
H382        H  0.05404587  0.63268564  0.10702998     0.15300
H383        H  0.14810783  0.69507143  0.18830227     0.15100
C384        C  0.16332019  0.59288660  0.15358371    -0.02000
O385        O  0.92061533  0.68122884  0.97826818    -0.57400
C386        C  0.08806875  0.59667434  0.02813926     0.75300
O387        O  0.95857328  0.60038897  0.42093833    -0.58500
C388        C  0.90449405  0.64928578  0.00303061     0.75200
C389        C  0.04852689  0.74299029  0.46117086     0.77600
Cd390      Cd  0.01425002  0.63529846  0.47180136     1.37500
O391        O  0.03219610  0.59865191  0.03416455    -0.57400
O392        O  0.07134435  0.70706872  0.94094359    -0.56200
C393        C  0.97683949  0.55353258  0.42696468     0.77600
O394        O  0.01430456  0.72819899  0.48659166    -0.58500
O395        O  0.10662563  0.61518798  0.49799074    -0.57000
O396        O  0.93527600  0.60782062  0.00858880    -0.57000
O397        O  0.02725441  0.54827474  0.94254905    -0.56200
C398        C  0.22788929  0.96698207  0.31769885     0.86900
C399        C  0.22768245  0.93741915  0.35429388    -0.53300
C400        C  0.17037938  0.92703644  0.36869663     0.09900
C401        C  0.11974235  0.95019589  0.34396767     0.20800
C402        C  0.18790795  0.93366055  0.29363645    -0.54000
C403        C  0.13170639  0.92516329  0.30593858     0.10000
C404        C  0.19314772  0.01770247  0.32560260    -0.53600
C405        C  0.13675622  0.00948822  0.33958411     0.10500
H406        H  0.26943100  0.92728082  0.36802024     0.15000
H407        H  0.07312528  0.94605571  0.35403652     0.00800
H408        H  0.20329831  0.91861631  0.26739838     0.15300
H409        H  0.20992478  0.05668326  0.31794823     0.15100
O410        O  0.85013112  0.63221413  0.05533139    -0.57400
C411        C  0.71305408  0.63306961  0.10412640     0.75300
O412        O  0.89096330  0.68495360  0.14951427    -0.58500
C413        C  0.86129949  0.66428759  0.02970496     0.75200
C414        C  0.81555250  0.81211402  0.08302171     0.77600
Cd415      Cd  0.82129676  0.69868179  0.09574519     1.37500
O416        O  0.74794473  0.63271462  0.07714312    -0.57400
O417        O  0.78439844  0.77986317  0.06447835    -0.56200
C418        C  0.93774473  0.67009150  0.13217650     0.77600
O419        O  0.84116910  0.79348099  0.11109283    -0.58500
O420        O  0.72577001  0.66723315  0.12869535    -0.57000
O421        O  0.84436326  0.71221410  0.03258904    -0.57000
O422        O  0.93156173  0.66771635  0.09807492    -0.56200
O423        O  0.96652632  0.96541264  0.99132846    -0.57400
C424        C  0.89168739  0.04680563  0.08391271     0.75300
O425        O  0.77999470  0.99210308  0.00451253    -0.58500
C426        C  0.97347289  0.91535119  0.48961681     0.75200
C427        C  0.82870286  0.86589402  0.06938758     0.77600
Cd428      Cd  0.87331381  0.95816555  0.03047872     1.37500
O429        O  0.88689475  0.05515620  0.04982695    -0.57400
O430        O  0.87543430  0.89058754  0.07954122    -0.56200
C431        C  0.78368297  0.96949128  0.47355304     0.77600
O432        O  0.79866372  0.88682917  0.04379667    -0.58500
O433        O  0.88742057  0.99840159  0.09299001    -0.57000
O434        O  0.94123667  0.88793732  0.51070583    -0.57000
O435        O  0.83307849  0.94725576  0.46631552    -0.56200
C436        C  0.09747891  0.87560286  0.41942670     0.86900
C437        C  0.04689058  0.86032720  0.39102732    -0.53300
C438        C  0.99428597  0.84024859  0.40668040     0.09900
C439        C  0.99882518  0.83363148  0.44801530     0.20800
C440        C  0.06182690  0.91157024  0.44697434    -0.54000
C441        C  0.01327776  0.88871982  0.46287536     0.10000
C442        C  0.10584616  0.82160379  0.43977599    -0.53600
C443        C  0.05484895  0.79983600  0.45336160     0.10500
H444        H  0.05216040  0.86270604  0.36185006     0.15000
H445        H  0.95789213  0.81569788  0.46038446     0.00800
H446        H  0.07208841  0.95276376  0.45300350     0.15300
H447        H  0.14671975  0.79814013  0.44003271     0.15100
C448        C  0.16291483  0.90180074  0.40741761    -0.02000
O449        O  0.03846898  0.39561475  0.47852844    -0.57400
C450        C  0.16491643  0.34424521  0.50772828     0.75300
O451        O  0.11514579  0.39425141  0.08995839    -0.58500
C452        C  0.98245554  0.39754761  0.98376048     0.75200
C453        C  0.02254504  0.24965898  0.05626849     0.77600
Cd454      Cd  0.05607088  0.35773359  0.04113414     1.37500
O455        O  0.15271998  0.31489863  0.53472433    -0.57400
O456        O  0.99943821  0.28724881  0.07483201    -0.56200
C457        C  0.09547772  0.44079497  0.08469061     0.77600
O458        O  0.05670970  0.26265237  0.03033003    -0.58500
O459        O  0.13041227  0.38269322  0.00035202    -0.57000
O460        O  0.96310785  0.37787543  0.01345776    -0.57000
O461        O  0.04383106  0.44528684  0.07052335    -0.56200
C462        C  0.84236509  0.02691839  0.20182274     0.86900
C463        C  0.87543913  0.97560438  0.19311856    -0.53300
C464        C  0.93161562  0.98293613  0.17862134     0.09900
C465        C  0.95006391  0.04178867  0.17437774     0.20800
C466        C  0.88411036  0.05886605  0.22572255    -0.54000
C467        C  0.93992042  0.06675934  0.21252409     0.10000
C468        C  0.84231823  0.05713207  0.16544211    -0.53600
C469        C  0.89950302  0.06634174  0.15045627     0.10500
H470        H  0.85800699  0.93685323  0.20086285     0.15000
H471        H  0.99642104  0.04527643  0.16371841     0.00800
H472        H  0.87032592  0.07337049  0.25243826     0.15300
H473        H  0.80047982  0.06859304  0.15233857     0.15100
O474        O  0.31591292  0.36295066  0.43162566    -0.57400
C475        C  0.20842642  0.32925926  0.48119472     0.75300
O476        O  0.18090908  0.31321197  0.36035461    -0.58500
C477        C  0.35509038  0.35829546  0.40706225     0.75200
C478        C  0.24816747  0.17915786  0.42949683     0.77600
Cd479      Cd  0.24660875  0.29305392  0.41501939     1.37500
O480        O  0.21788371  0.36037045  0.45483811    -0.57400
O481        O  0.28889202  0.20940028  0.44186854    -0.56200
C482        C  0.13279920  0.32474375  0.37766528     0.77600
O483        O  0.21353957  0.19925245  0.40578958    -0.58500
O484        O  0.22726780  0.28184199  0.47918025    -0.57000
O485        O  0.34610497  0.32040460  0.38448333    -0.57000
O486        O  0.13666877  0.32182138  0.41187413    -0.56200
O487        O  0.09766185  0.02953170  0.02212412    -0.57400
C488        C  0.17823489  0.94678797  0.43522752     0.75300
O489        O  0.27283549  0.10318237  0.46682023    -0.58500
C490        C  0.10086144  0.07796270  0.03194746     0.75200
C491        C  0.28864373  0.01809140  0.04568025     0.77600
Cd492      Cd  0.19873427  0.03424401  0.48871045     1.37500
O493        O  0.18286789  0.93837862  0.46933982    -0.57400
O494        O  0.23909279  0.03972668  0.05324944    -0.56200
C495        C  0.23606926  0.12633856  0.44563050     0.77600
O496        O  0.29260036  0.99746766  0.01411026    -0.58500
O497        O  0.18294118  0.99511408  0.42609450    -0.57000
O498        O  0.14439929  0.10412517  0.01928231    -0.57000
O499        O  0.18500249  0.10464240  0.44214575    -0.56200
C500        C  0.97266891  0.11762708  0.10005199     0.86900
C501        C  0.00908827  0.08152019  0.07276912    -0.53300
C502        C  0.05871421  0.10424174  0.05774050     0.09900
C503        C  0.07205582  0.15954177  0.07261052     0.20800
C504        C  0.02241658  0.13286768  0.12899754    -0.54000
C505        C  0.07537910  0.15274156  0.11384152     0.10000
C506        C  0.96479667  0.17146006  0.07932791    -0.53600
C507        C  0.01628255  0.19329201  0.06637007     0.10500
H508        H  0.99867855  0.04039166  0.06657475     0.15000
H509        H  0.11316117  0.17788495  0.06080483     0.00800
H510        H  0.01660370  0.12987816  0.15822647     0.15300
H511        H  0.92334778  0.19388038  0.07735814     0.15100
C512        C  0.90703402  0.09170266  0.11184200    -0.02000
O513        O  0.53888791  0.09603974  0.53772220    -0.57400
C514        C  0.66109329  0.14734956  0.51307114     0.75300
O515        O  0.61527211  0.09741749  0.92585038    -0.58500
C516        C  0.48269257  0.09630236  0.03301115     0.75200
C517        C  0.52493963  0.24024275  0.95781871     0.77600
Cd518      Cd  0.55623519  0.13256313  0.97518782     1.37500
O519        O  0.64765500  0.17886269  0.48753305    -0.57400
O520        O  0.48819973  0.20348934  0.94919331    -0.56200
C521        C  0.59607245  0.05064414  0.93047826     0.77600
O522        O  0.57253524  0.22620367  0.97374823    -0.58500
O523        O  0.62906153  0.10643297  0.51796532    -0.57000
O524        O  0.46314836  0.11762599  0.00391316    -0.57000
O525        O  0.54504135  0.04538260  0.44510759    -0.56200
C526        C  0.34055904  0.46361669  0.81416473     0.86900
C527        C  0.37416096  0.51457859  0.82297957    -0.53300
C528        C  0.43071250  0.50678814  0.83666546     0.09900
C529        C  0.44879997  0.44786671  0.84033107     0.20800
C530        C  0.38118729  0.43182258  0.78956888    -0.54000
C531        C  0.43742228  0.42371584  0.80198914     0.10000
C532        C  0.34122617  0.43263794  0.85020964    -0.53600
C533        C  0.39871660  0.42315952  0.86471929     0.10500
H534        H  0.35687431  0.55352839  0.81555728     0.15000
H535        H  0.49550889  0.44462110  0.85037843     0.00800
H536        H  0.36635303  0.41786184  0.76291218     0.15300
H537        H  0.29959352  0.42151490  0.86366143     0.15100
O538        O  0.81844884  0.13238663  0.58419525    -0.57400
C539        C  0.70391970  0.16204280  0.54009749     0.75300
O540        O  0.68149615  0.18070774  0.65931001    -0.58500
C541        C  0.85607716  0.13347302  0.60984436     0.75200
C542        C  0.74971849  0.31325015  0.58817126     0.77600
Cd543      Cd  0.74769886  0.19959099  0.60439541     1.37500
O544        O  0.71220800  0.13149928  0.56695643    -0.57400
O545        O  0.78838259  0.28189666  0.57481470    -0.56200
C546        C  0.63383214  0.16876925  0.64155954     0.77600
O547        O  0.71745431  0.29455506  0.61357868    -0.58500
O548        O  0.72509463  0.20878401  0.54117867    -0.57000
O549        O  0.84617077  0.16853063  0.63436337    -0.57000
O550        O  0.63848360  0.17110968  0.60743385    -0.56200
O551        O  0.68165381  0.55371774  0.54559960    -0.57400
C552        C  0.59891853  0.41207318  0.98498549     0.75300
O553        O  0.79023090  0.49428743  0.50167036    -0.58500
C554        C  0.67641275  0.54625888  0.57976241     0.75200
C555        C  0.73698858  0.36565441  0.57144701     0.77600
Cd556      Cd  0.69724016  0.45658660  0.52758176     1.37500
O557        O  0.59779078  0.46130027  0.49282134    -0.57400
O558        O  0.68695953  0.38855146  0.57643148    -0.56200
C559        C  0.78709944  0.47270543  0.97037111     0.77600
O560        O  0.77182224  0.38714771  0.54834978    -0.58500
O561        O  0.63995151  0.38524510  0.99989597    -0.57000
O562        O  0.68063311  0.49810067  0.58943290    -0.57000
O563        O  0.73853005  0.44904299  0.96319061    -0.56200
C564        C  0.47222326  0.37310203  0.91565944     0.86900
C565        C  0.50789716  0.40848677  0.94378847    -0.53300
C566        C  0.55767600  0.38593915  0.95857241     0.09900
C567        C  0.57235781  0.33174005  0.94251169     0.20800
C568        C  0.52228493  0.35951624  0.88659564    -0.54000
C569        C  0.57562003  0.34018076  0.90146582     0.10000
C570        C  0.46513140  0.31830553  0.93536691    -0.53600
C571        C  0.51721893  0.29659923  0.94783269     0.10500
H572        H  0.49720175  0.44925025  0.95078252     0.15000
H573        H  0.61415769  0.31415637  0.95395069     0.00800
H574        H  0.51618993  0.36208068  0.85742964     0.15300
H575        H  0.42390069  0.29548217  0.93696227     0.15100
C576        C  0.40668646  0.39932438  0.90381611    -0.02000
O577        O  0.53053743  0.89633872  0.98219679    -0.57400
C578        C  0.40264010  0.85101614  0.01361538     0.75300
O579        O  0.50725028  0.76743788  0.53239023    -0.58500
C580        C  0.58655566  0.89781689  0.48775296     0.75200
C581        C  0.47929666  0.94130704  0.59157792     0.77600
Cd582      Cd  0.51288877  0.86088694  0.54543852     1.37500
O583        O  0.41699435  0.81868649  0.03855372    -0.57400
O584        O  0.52908859  0.94666176  0.57533321    -0.56200
C585        C  0.54539674  0.75209916  0.55552545     0.77600
O586        O  0.46166678  0.89448645  0.59837166    -0.58500
O587        O  0.43405835  0.89243758  0.50909920    -0.57000
O588        O  0.60521308  0.87982153  0.51806500    -0.57000
O589        O  0.57192986  0.78781038  0.57419625    -0.56200
C590        C  0.72557194  0.52591616  0.69646226     0.86900
C591        C  0.72556182  0.55730005  0.66062748    -0.53300
C592        C  0.66848860  0.56746021  0.64597104     0.09900
C593        C  0.61777344  0.54281944  0.66982931     0.20800
C594        C  0.68470771  0.55740238  0.72108567    -0.54000
C595        C  0.62881894  0.56641523  0.70835034     0.10000
C596        C  0.69159755  0.47514045  0.68718257    -0.53600
C597        C  0.63518097  0.48359572  0.67316556     0.10500
H598        H  0.76741839  0.56824436  0.64734035     0.15000
H599        H  0.57129408  0.54690265  0.65948795     0.00800
H600        H  0.69931772  0.57095525  0.74787018     0.15300
H601        H  0.70840814  0.43602724  0.69440925     0.15100
O602        O  0.24575816  0.85779589  0.93904670    -0.57400
C603        C  0.36189768  0.83570919  0.98543933     0.75300
O604        O  0.35912089  0.70516114  0.90823571    -0.58500
C605        C  0.21449725  0.86065733  0.91047111     0.75200
C606        C  0.43675786  0.82579030  0.88157300     0.77600
Cd607      Cd  0.32353798  0.79701126  0.91938495     1.37500
O608        O  0.35675628  0.86538224  0.95783618    -0.57400
O609        O  0.43256318  0.82652741  0.91584988    -0.56200
C610        C  0.32369190  0.68261445  0.93026642     0.77600
O611        O  0.38866353  0.81346467  0.86452185    -0.58500
O612        O  0.34098426  0.78887535  0.98393887    -0.57000
O613        O  0.23087539  0.82982298  0.88463967    -0.57000
O614        O  0.28210694  0.71121466  0.94332480    -0.56200
O615        O  0.47160809  0.52988271  0.51885148    -0.57400
C616        C  0.39224132  0.44542265  0.93097100     0.75300
O617        O  0.27851491  0.50259472  0.50828559    -0.58500
C618        C  0.47052775  0.57933422  0.52610857     0.75200
C619        C  0.33557833  0.62842245  0.94368365     0.77600
Cd620      Cd  0.37338076  0.53480115  0.98357649     1.37500
O621        O  0.38644469  0.43795035  0.96508693    -0.57400
O622        O  0.38630208  0.60671863  0.93860900    -0.56200
C623        C  0.28355141  0.52157141  0.54027333     0.77600
O624        O  0.29898222  0.60373232  0.96408640    -0.58500
O625        O  0.38943881  0.49368976  0.92130570    -0.57000
O626        O  0.43008653  0.60613230  0.51065751    -0.57000
O627        O  0.33432186  0.54039012  0.54854149    -0.56200
C628        C  0.59611106  0.61856917  0.59543289     0.86900
C629        C  0.54583562  0.63321608  0.62420736    -0.53300
C630        C  0.49302230  0.65328668  0.60889385     0.09900
C631        C  0.49696629  0.66064516  0.56773843     0.20800
C632        C  0.56041761  0.58304114  0.56765365    -0.54000
C633        C  0.51127271  0.60581902  0.55242585     0.10000
C634        C  0.60403354  0.67302133  0.57553015    -0.53600
C635        C  0.55258527  0.69496911  0.56254281     0.10500
H636        H  0.55152474  0.63066202  0.65340948     0.15000
H637        H  0.45584289  0.67874000  0.55573612     0.00800
H638        H  0.57068597  0.54198286  0.56124698     0.15300
H639        H  0.64496861  0.69640236  0.57515497     0.15100
C640        C  0.66140443  0.59204333  0.60714620    -0.02000
O641        O  0.65078566  0.31802431  0.72661570    -0.57400
C642        C  0.48008749  0.39875236  0.77669365     0.75300
O643        O  0.60877362  0.39270891  0.66836617    -0.58500
C644        C  0.66469959  0.34934290  0.75226764     0.75200
C645        C  0.52126115  0.25131032  0.71178500     0.77600
Cd646      Cd  0.55460290  0.35986144  0.72045863     1.37500
O647        O  0.53595279  0.39632745  0.78268248    -0.57400
O648        O  0.49864938  0.28623627  0.69068435    -0.56200
C649        C  0.59168961  0.43984563  0.67460499     0.77600
O650        O  0.55570228  0.26739373  0.73676507    -0.58500
O651        O  0.46134640  0.38091449  0.74630158    -0.57000
O652        O  0.63188876  0.38943739  0.75829444    -0.57000
O653        O  0.54193852  0.44606293  0.69079443    -0.56200
C654        C  0.34486032  0.02628262  0.56832009     0.86900
C655        C  0.34378551  0.05654671  0.60473571    -0.53300
C656        C  0.40065129  0.06741724  0.61969061     0.09900
C657        C  0.45201827  0.04440355  0.59568870     0.20800
C658        C  0.38511941  0.05963980  0.54449771    -0.54000
C659        C  0.44061972  0.06923336  0.55760115     0.10000
C660        C  0.37994903  0.97600617  0.57698378    -0.52000
C661        C  0.43577595  0.98503850  0.59154611     0.10500
H662        H  0.30160583  0.06670672  0.61794687     0.15000
H663        H  0.49832137  0.04884325  0.60617992     0.00800
H664        H  0.37058519  0.07379317  0.51783147     0.15300
H665        H  0.36381354  0.93671224  0.56957805     0.15100
O666        O  0.71618022  0.36515583  0.80596651    -0.57400
C667        C  0.85554421  0.36154217  0.85393840     0.75300
O668        O  0.68141621  0.31643456  0.89910273    -0.58500
C669        C  0.70744234  0.33431697  0.77929345     0.75200
C670        C  0.74888360  0.18273724  0.83331919     0.77600
Cd671      Cd  0.74682584  0.29700714  0.84501878     1.37500
O672        O  0.82004743  0.36281704  0.82719662    -0.57400
O673        O  0.78523312  0.21326988  0.81700327    -0.56200
C674        C  0.63283261  0.32657497  0.88192028     0.77600
O675        O  0.71831626  0.20340056  0.85874787    -0.58500
O676        O  0.84323705  0.32667440  0.87809031    -0.57000
O677        O  0.72642718  0.28689237  0.78117348    -0.57000
O678        O  0.63635745  0.32394610  0.84768956    -0.56200
O679        O  0.60103425  0.02725613  0.74347904    -0.57400
C680        C  0.67725520  0.94493057  0.83377303     0.75300
O681        O  0.78910881  0.99816591  0.75546069    -0.58500
C682        C  0.59570606  0.07744065  0.74136479     0.75200
C683        C  0.73684242  0.12834420  0.82010962     0.77600
Cd684      Cd  0.69601534  0.03421831  0.78135252     1.37500
O685        O  0.68275092  0.93767977  0.79963391    -0.57400
O686        O  0.68870028  0.10441275  0.82853008    -0.56200
C687        C  0.78592302  0.02019646  0.72434597     0.77600
O688        O  0.77010813  0.10565581  0.79673660    -0.58500
O689        O  0.68084267  0.99305349  0.84367699    -0.57000
O690        O  0.63033924  0.10453285  0.76115450    -0.57000
O691        O  0.73712161  0.04354536  0.71713496    -0.56200
C692        C  0.47224137  0.11827450  0.67128496     0.86900
C693        C  0.52388730  0.13339872  0.64352861    -0.53300
C694        C  0.57608555  0.15316945  0.65993116     0.09900
C695        C  0.57018540  0.15989972  0.70104038     0.20800
C696        C  0.50692696  0.08220944  0.69923078    -0.54000
C697        C  0.55525244  0.10477265  0.71547924     0.10000
C698        C  0.46344411  0.17223823  0.69157403    -0.53600
C699        C  0.51425886  0.19403648  0.70556504     0.10500
H700        H  0.51959593  0.13139142  0.61426377     0.15000
H701        H  0.61077386  0.17772191  0.71392815     0.00800
H702        H  0.49684558  0.04088735  0.70492908     0.15300
H703        H  0.42257054  0.19569681  0.69128528     0.15100
C704        C  0.40717264  0.09206760  0.65851835    -0.02000
O705        O  0.53099934  0.59732304  0.72691429    -0.57400
C706        C  0.40381959  0.64681813  0.75709862     0.75300
O707        O  0.45536309  0.59794198  0.84015336    -0.58500
C708        C  0.58655049  0.59270226  0.73332829     0.75200
C709        C  0.54739321  0.73933329  0.80530760     0.77600
Cd710      Cd  0.51284847  0.63222628  0.79006034     1.37500
O711        O  0.41824597  0.67701750  0.78323955    -0.57400
O712        O  0.57294104  0.70155160  0.82244085    -0.56200
C713        C  0.47335430  0.55095321  0.83460871     0.77600
O714        O  0.51065669  0.72674857  0.78058164    -0.58500
O715        O  0.43610461  0.60662073  0.75037257    -0.57000
O716        O  0.60536267  0.60972822  0.76389679    -0.57000
O717        O  0.52359809  0.54501822  0.81901081    -0.56200
C718        C  0.72738072  0.96162631  0.95115579     0.86900
C719        C  0.69434791  0.01287572  0.94256206    -0.53300
C720        C  0.63796995  0.00579013  0.92845557     0.09900
C721        C  0.61940636  0.94697783  0.92414914     0.20800
C722        C  0.68608096  0.92956951  0.97514629    -0.54000
C723        C  0.62982260  0.92215054  0.96242046     0.10000
C724        C  0.72717592  0.93127738  0.91487740    -0.53600
C725        C  0.66990790  0.92221265  0.89992406     0.10500
H726        H  0.71193606  0.05153560  0.95038641     0.15000
H727        H  0.57286503  0.94414993  0.91370355     0.00800
H728        H  0.70043859  0.91517892  0.50174331     0.15300
H729        H  0.76900021  0.92012849  0.90166591     0.15100
O730        O  0.25380991  0.63008742  0.68129157    -0.57400
C731        C  0.36062756  0.66279585  0.73061885     0.75300
O732        O  0.38773789  0.67945392  0.61068112    -0.58500
C733        C  0.21503631  0.63394263  0.65640572     0.75200
C734        C  0.32047282  0.81414419  0.67865006     0.77600
Cd735      Cd  0.32245073  0.70021214  0.66479885     1.37500
O736        O  0.35008810  0.63200028  0.70422407    -0.57400
O737        O  0.27970457  0.78409579  0.69117197    -0.56200
C738        C  0.43608345  0.66897134  0.62807458     0.77600
O739        O  0.35518742  0.79373258  0.65514627    -0.58500
O740        O  0.34300505  0.71062051  0.72877977    -0.57000
O741        O  0.22384834  0.67158891  0.63364138    -0.57000
O742        O  0.43264243  0.67308275  0.66223493    -0.56200
O743        O  0.47461761  0.95974460  0.77013939    -0.57400
C744        C  0.39209635  0.04634302  0.68569341     0.75300
O745        O  0.29745492  0.88950311  0.71684163    -0.58500
C746        C  0.47082332  0.91113991  0.77947182     0.75200
C747        C  0.28460837  0.97429216  0.79547602     0.77600
Cd748      Cd  0.37301716  0.95740278  0.73790141     1.37500
O749        O  0.38333363  0.05434696  0.71953330    -0.57400
O750        O  0.33316731  0.95055878  0.80259107    -0.56200
C751        C  0.33283312  0.86704824  0.69449288     0.77600
O752        O  0.28136572  0.99601043  0.76425661    -0.58500
O753        O  0.39289608  0.99785204  0.67645026    -0.57000
O754        O  0.42673164  0.88567669  0.76683413    -0.57000
O755        O  0.38323197  0.88933105  0.68967411    -0.56200
C756        C  0.59760550  0.87202115  0.84842279     0.86900
C757        C  0.56216117  0.90709956  0.82009476    -0.53300
C758        C  0.51262634  0.88435518  0.80512553     0.09900
C759        C  0.49818577  0.82988989  0.82093001     0.20800
C760        C  0.54717051  0.85832940  0.87713036    -0.54000
C761        C  0.49424489  0.83854621  0.86202690     0.10000
C762        C  0.60539709  0.81724668  0.82884471    -0.53600
C763        C  0.55387958  0.79546242  0.81573648     0.10500
H764        H  0.57236553  0.94812630  0.81350599     0.15000
H765        H  0.45690395  0.81159582  0.80926108     0.00800
H766        H  0.55262892  0.86146616  0.90636791     0.15300
H767        H  0.64672378  0.79453148  0.82751854     0.15100
C768        C  0.66271505  0.89863575  0.86065228    -0.02000
O769        O  0.15054004  0.18109548  0.78667592    -0.57400
C770        C  0.98299399  0.09359932  0.73674689     0.75300
O771        O  0.11243861  0.10082351  0.84419773    -0.58500
C772        C  0.16714418  0.14938380  0.76191637     0.75200
C773        C  0.02220518  0.24284353  0.80371483     0.77600
Cd774      Cd  0.05669608  0.13460279  0.79305550     1.37500
O775        O  0.03928852  0.09114804  0.73252152    -0.57400
O776        O  0.99971694  0.20680491  0.82397253    -0.56200
C777        C  0.09397588  0.05389913  0.83868470     0.77600
O778        O  0.05640882  0.22800427  0.77824708    -0.58500
O779        O  0.96382019  0.11760571  0.76490417    -0.57000
O780        O  0.13622352  0.10811352  0.75592461    -0.57000
O781        O  0.04316449  0.04844701  0.82358197    -0.56200
C782        C  0.84360420  0.46584441  0.94783732     0.86900
C783        C  0.84332726  0.43672785  0.91101026    -0.53300
C784        C  0.90038760  0.42704512  0.89608958     0.09900
C785        C  0.95136975  0.45000032  0.92079624     0.20800
C786        C  0.88416124  0.43242607  0.97145254    -0.54000
C787        C  0.94016397  0.42416282  0.95872606     0.10000
C788        C  0.87794232  0.51685961  0.94007303    -0.53600
C789        C  0.93414967  0.50910030  0.92574251     0.10500
H790        H  0.80141955  0.42634550  0.89756325     0.15000
H791        H  0.99785461  0.44636698  0.91040240     0.00800
H792        H  0.86935177  0.41736770  0.49784596     0.15300
H793        H  0.86113002  0.55565750  0.94810428     0.15100
O794        O  0.22266982  0.13230140  0.71021384    -0.57400
C795        C  0.35517979  0.13290218  0.66087329     0.75300
O796        O  0.18069486  0.17863182  0.61533824    -0.58500
C797        C  0.21100943  0.16445942  0.73563714     0.75200
C798        C  0.24733134  0.31302927  0.67934676     0.77600
Cd799      Cd  0.24722099  0.19868647  0.66876876     1.37500
O800        O  0.31572798  0.12869458  0.68529422    -0.57400
O801        O  0.28990519  0.28475519  0.69168440    -0.56200
C802        C  0.13284840  0.16732128  0.63294255     0.77600
O803        O  0.21120980  0.29028126  0.65772559    -0.58500
O804        O  0.34656065  0.17049751  0.63803380    -0.57000
O805        O  0.22754263  0.21246788  0.73256255    -0.57000
O806        O  0.13738561  0.16939412  0.66715313    -0.56200
O807        O  0.18227345  0.55575857  0.71541079    -0.57400
C808        C  0.09779658  0.41549696  0.77601113     0.75300
O809        O  0.27161282  0.39194820  0.71354269    -0.58500
C810        C  0.17759963  0.54759395  0.68128662     0.75200
C811        C  0.28403917  0.47160056  0.79208752     0.77600
Cd812      Cd  0.19577717  0.45916817  0.73431392     1.37500
O813        O  0.09765351  0.46517653  0.76950336    -0.57400
O814        O  0.23606291  0.44649774  0.79821540    -0.56200
C815        C  0.23488880  0.36686938  0.69336907     0.77600
O816        O  0.28686894  0.49613585  0.76185934    -0.58500
O817        O  0.13725399  0.38842732  0.75990505    -0.57000
O818        O  0.18122862  0.49921875  0.67198108    -0.57000
O819        O  0.18346835  0.38764898  0.68915555    -0.56200
C820        C  0.97259166  0.37582192  0.84524344     0.86900
C821        C  0.02289650  0.36052019  0.87385878    -0.53300
C822        C  0.07562678  0.34048975  0.85838516     0.09900
C823        C  0.07141991  0.33374856  0.81712653     0.20800
C824        C  0.00847355  0.41171259  0.81782431    -0.54000
C825        C  0.05727277  0.38890393  0.80227868     0.10000
C826        C  0.96429819  0.32177242  0.82480542    -0.53600
C827        C  0.01553863  0.29983960  0.81153330     0.10500
H828        H  0.01736856  0.36278276  0.90305143     0.15000
H829        H  0.11239447  0.31563314  0.80496149     0.00800
H830        H  0.99850439  0.45296870  0.81184934     0.15300
H831        H  0.92317319  0.29868244  0.82408190     0.15100
C832        C  0.90737083  0.40243295  0.85709355    -0.02000
O833        O  0.03586678  0.88815662  0.78844679    -0.57400
C834        C  0.90681119  0.84653731  0.75698876     0.75300
O835        O  0.95511144  0.89152737  0.67507959    -0.58500
C836        C  0.08974211  0.89912730  0.78058876     0.75200
C837        C  0.04970637  0.75115131  0.70959612     0.77600
Cd838      Cd  0.01592891  0.85847548  0.72412519     1.37500
O839        O  0.92151660  0.81508034  0.73161610    -0.57400
O840        O  0.07547992  0.78855624  0.69221596    -0.56200
C841        C  0.97406618  0.93847372  0.67957860     0.77600
O842        O  0.01339015  0.76419215  0.73436991    -0.58500
O843        O  0.93890251  0.88717355  0.76293243    -0.57000
O844        O  0.10717695  0.88799229  0.74849687    -0.57000
O845        O  0.02584842  0.94429213  0.69330822    -0.56200
C846        C  0.22766167  0.52940357  0.56311558     0.86900
C847        C  0.19344877  0.47837225  0.57067832    -0.53300
C848        C  0.13745821  0.48578150  0.58524960     0.09900
C849        C  0.11998517  0.54471955  0.59046631     0.20800
C850        C  0.18702090  0.56327185  0.53988747    -0.54000
C851        C  0.13097156  0.57083426  0.55278793     0.10000
C852        C  0.22809975  0.55826395  0.60004396    -0.53600
C853        C  0.17089160  0.56796518  0.61489507     0.10500
H854        H  0.21039437  0.43967676  0.56248159     0.15000
H855        H  0.07356703  0.54827971  0.60100285     0.00800
H856        H  0.20166053  0.57895276  0.51366421     0.15300
H857        H  0.27003695  0.56892999  0.61341157     0.15100
O858        O  0.75314209  0.86238554  0.83220116    -0.57400
C859        C  0.86363972  0.83118887  0.78360742     0.75300
O860        O  0.88888023  0.81316677  0.90441441    -0.58500
C861        C  0.71470224  0.85800849  0.85722139     0.75200
C862        C  0.82012826  0.68013240  0.83350049     0.77600
Cd863      Cd  0.82367887  0.79365560  0.84910359     1.37500
O864        O  0.85221897  0.86251866  0.80960207    -0.57400
O865        O  0.78270040  0.71174739  0.81916627    -0.56200
C866        C  0.93727105  0.82442991  0.88733250     0.77600
O867        O  0.85190587  0.69887761  0.85914570    -0.58500
O868        O  0.84672722  0.78323773  0.78588090    -0.57000
O869        O  0.72453953  0.82059023  0.87998652    -0.57000
O870        O  0.93380372  0.82128406  0.85311953    -0.56200
O871        O  0.96985029  0.53000603  0.73933976    -0.57400
C872        C  0.89244885  0.44775274  0.82935140     0.75300
O873        O  0.79730901  0.60494475  0.79499560    -0.58500
C874        C  0.97075164  0.57979826  0.73342188     0.75200
C875        C  0.78254526  0.51896954  0.71845567     0.77600
Cd876      Cd  0.87226236  0.53546083  0.77558826     1.37500
O877        O  0.88809454  0.43952003  0.79520082    -0.57400
O878        O  0.82952789  0.54543729  0.71211961    -0.56200
C879        C  0.83233814  0.62716223  0.81771469     0.77600
O880        O  0.78090831  0.49495835  0.74891060    -0.58500
O881        O  0.88751333  0.49604980  0.83855946    -0.57000
O882        O  0.93185713  0.60692166  0.75003486    -0.57000
O883        O  0.88225166  0.60434707  0.82323613    -0.56200
C884        C  0.09794212  0.61950752  0.66513066     0.86900
C885        C  0.06112263  0.58343884  0.69207720    -0.53300
C886        C  0.01204739  0.60637333  0.70739859     0.09900
C887        C  0.99895250  0.66188250  0.69281476     0.20800
C888        C  0.04827378  0.63546785  0.63624265    -0.54000
C889        C  0.99540974  0.65565223  0.65145296     0.10000
C890        C  0.10642466  0.67298676  0.68615319    -0.53600
C891        C  0.05522226  0.69503212  0.69921297     0.10500
H892        H  0.07094732  0.54216090  0.69802664     0.15000
H893        H  0.95794254  0.68013526  0.70482094     0.00800
H894        H  0.05405543  0.63271818  0.60704946     0.15300
H895        H  0.14811392  0.69508227  0.68834320     0.15100
C896        C  0.16332703  0.59292409  0.65358215    -0.02000
O897        O  0.92051969  0.68116758  0.47827192    -0.57400
C898        C  0.08804190  0.59662811  0.52814675     0.75300
O899        O  0.95860050  0.60041732  0.92089949    -0.58500
C900        C  0.90447017  0.64926440  0.50307643     0.75200
C901        C  0.04852499  0.74300507  0.96116703     0.77600
Cd902      Cd  0.01428353  0.63529884  0.97177050     1.37500
O903        O  0.03219068  0.59875056  0.53422268    -0.57400
O904        O  0.07133013  0.70703962  0.44095406    -0.56200
C905        C  0.97687143  0.55355851  0.92691100     0.77600
O906        O  0.01429173  0.72819458  0.98657736    -0.58500
O907        O  0.10667211  0.61533558  0.99801745    -0.57000
O908        O  0.93531326  0.60784472  0.50866654    -0.57000
O909        O  0.02720485  0.54825265  0.44262237    -0.56200
C910        C  0.22793499  0.96697788  0.81773294     0.86900
C911        C  0.22771214  0.93736668  0.85430819    -0.53300
C912        C  0.17040557  0.92701954  0.86871685     0.09900
C913        C  0.11978069  0.95023454  0.84400397     0.20800
C914        C  0.18791289  0.93372250  0.79365273    -0.54000
C915        C  0.13170956  0.92523828  0.80595869     0.10000
C916        C  0.19324178  0.01771504  0.82567336    -0.53600
C917        C  0.13684084  0.00952146  0.83964918     0.10500
H918        H  0.26945786  0.92719132  0.86802416     0.15000
H919        H  0.07316420  0.94610707  0.85407808     0.00800
H920        H  0.20328413  0.91870177  0.76740456     0.15300
H921        H  0.21004307  0.05669215  0.81802921     0.15100
O922        O  0.85017754  0.63222117  0.55540629    -0.57400
C923        C  0.71301128  0.63311014  0.60415872     0.75300
O924        O  0.89097178  0.68498635  0.64954602    -0.58500
C925        C  0.86128546  0.66427039  0.52975534     0.75200
C926        C  0.81560029  0.81212911  0.58305821     0.77600
Cd927      Cd  0.82128136  0.69869802  0.59578428     1.37500
O928        O  0.74776823  0.63288979  0.57711131    -0.57400
O929        O  0.78435421  0.77989868  0.56455611    -0.56200
C930        C  0.93774346  0.67010756  0.63220412     0.77600
O931        O  0.84128576  0.79348363  0.61110157    -0.58500
O932        O  0.72585835  0.66714484  0.62878819    -0.57000
O933        O  0.84429932  0.71218634  0.53261481    -0.57000
O934        O  0.93153966  0.66770098  0.59810474    -0.56200
O935        O  0.96654810  0.96539269  0.49132755    -0.57400
C936        C  0.89173166  0.04679782  0.58391310     0.75300
O937        O  0.78000754  0.99209841  0.50448736    -0.58500
C938        C  0.97346172  0.91537191  0.98962051     0.75200
C939        C  0.82875927  0.86589636  0.56940501     0.77600
Cd940      Cd  0.87332947  0.95815828  0.53047139     1.37500
O941        O  0.88699647  0.05514140  0.54982321    -0.57400
O942        O  0.87552886  0.89056752  0.57951954    -0.56200
C943        C  0.78367616  0.96951310  0.97357276     0.77600
O944        O  0.79867542  0.88684336  0.54383728    -0.58500
O945        O  0.88738390  0.99840156  0.59299489    -0.57000
O946        O  0.94123904  0.88795658  0.01071614    -0.57000
O947        O  0.83307809  0.94729565  0.96632482    -0.56200
C948        C  0.09748909  0.87561850  0.91944463     0.86900
C949        C  0.04691531  0.86033943  0.89103622    -0.53300
C950        C  0.99430303  0.84026104  0.90668093     0.09900
C951        C  0.99882309  0.83364960  0.94801780     0.20800
C952        C  0.06182015  0.91159191  0.94698082    -0.54000
C953        C  0.01326712  0.88874227  0.96287732     0.10000
C954        C  0.10585039  0.82162897  0.93980359    -0.53600
C955        C  0.05484704  0.79985647  0.95337609     0.10500
H956        H  0.05219691  0.86272887  0.86186184     0.15000
H957        H  0.95788602  0.81571758  0.96038275     0.00800
H958        H  0.07207687  0.95278892  0.95300774     0.15300
H959        H  0.14673613  0.79817660  0.94008006     0.15100
C960        C  0.16292962  0.90181018  0.90744416    -0.02000
O961        O  0.03851230  0.39571706  0.97852712    -0.57400
C962        C  0.16491266  0.34428745  0.00772097     0.75300
O963        O  0.11511277  0.39421836  0.58998345    -0.58500
C964        C  0.98242137  0.39750487  0.48378975     0.75200
C965        C  0.02258323  0.24958851  0.55622436     0.77600
Cd966      Cd  0.05606822  0.35768435  0.54113554     1.37500
O967        O  0.15267913  0.31488937  0.03468431    -0.57400
O968        O  0.99939535  0.28716242  0.57476578    -0.56200
C969        C  0.09547049  0.44076844  0.58470586     0.77600
O970        O  0.05681360  0.26260409  0.53032376    -0.58500
O971        O  0.13036105  0.38259441  0.50031266    -0.57000
O972        O  0.96308546  0.37787609  0.51350368    -0.57000
O973        O  0.04385753  0.44526969  0.57049689    -0.56200
C974        C  0.84243695  0.02694666  0.70183608     0.86900
C975        C  0.87553309  0.97563898  0.69314276    -0.53300
C976        C  0.93170734  0.98298311  0.67864434     0.09900
C977        C  0.95013778  0.04183737  0.67439641     0.20800
C978        C  0.88416528  0.05891195  0.72573460    -0.54000
C979        C  0.93997997  0.06681379  0.71254222     0.10000
C980        C  0.84238751  0.05714350  0.66544998    -0.53600
C981        C  0.89956982  0.06635519  0.65046340     0.10500
H982        H  0.85810898  0.93688285  0.70088359     0.15000
H983        H  0.99649664  0.04533512  0.66374094     0.00800
H984        H  0.87036315  0.07341717  0.75244654     0.15300
H985        H  0.80054731  0.06858529  0.65234025     0.15100
O986        O  0.31583230  0.36299766  0.93160061    -0.57400
C987        C  0.20838215  0.32930274  0.98116371     0.75300
O988        O  0.18082923  0.31313636  0.86030278    -0.58500
C989        C  0.35503817  0.35832516  0.90705666     0.75200
C990        C  0.24808906  0.17920969  0.92949832     0.77600
Cd991      Cd  0.24654707  0.29310110  0.91498483     1.37500
O992        O  0.21779591  0.36041144  0.95479952    -0.57400
O993        O  0.28879318  0.20946639  0.94187716    -0.56200
C994        C  0.13275560  0.32479613  0.87761008     0.77600
O995        O  0.21347376  0.19928821  0.90577775    -0.58500
O996        O  0.22723285  0.28188899  0.97914443    -0.57000
O997        O  0.34606966  0.32043249  0.88447679    -0.57000
O998        O  0.13665821  0.32200981  0.91182290    -0.56200
O999        O  0.09775600  0.02943066  0.52218177    -0.57400
C1000       C  0.17823242  0.94680897  0.93524921     0.75300
O1001       O  0.27276912  0.10325794  0.96683787    -0.58500
C1002       C  0.10090702  0.07788494  0.53195632     0.75200
C1003       C  0.28865028  0.01807127  0.54569410     0.77600
Cd1004     Cd  0.19870363  0.03429032  0.98871540     1.37500
O1005       O  0.18281694  0.93841692  0.96936627    -0.57400
O1006       O  0.23911821  0.03975591  0.55324128    -0.56200
C1007       C  0.23600652  0.12638901  0.94563337     0.77600
O1008       O  0.29259799  0.99739650  0.51413893    -0.58500
O1009       O  0.18298354  0.99512666  0.92610395    -0.57000
O1010       O  0.14437027  0.10407602  0.51922562    -0.57000
O1011       O  0.18495844  0.10466400  0.94213277    -0.56200
C1012       C  0.97272806  0.11760185  0.60005004     0.86900
C1013       C  0.00916942  0.08145347  0.57280618    -0.53300
C1014       C  0.05878708  0.10416652  0.55776230     0.09900
C1015       C  0.07211337  0.15949344  0.57259407     0.20800
C1016       C  0.02245547  0.13290584  0.62899350    -0.54000
C1017       C  0.07542055  0.15276743  0.61383280     0.10000
C1018       C  0.96484829  0.17139211  0.57927846    -0.53600
C1019       C  0.01633243  0.19321920  0.56631753     0.10500
H1020       H  0.99875809  0.04031736  0.56663459     0.15000
H1021       H  0.11321883  0.17782454  0.56077995     0.00800
H1022       H  0.01662680  0.12995871  0.65822439     0.15300
H1023       H  0.92339378  0.19380138  0.57728827     0.15100
C1024       C  0.90709179  0.09169451  0.61184312    -0.02000
loop_ 
_geom_bond_atom_site_label_1 
_geom_bond_atom_site_label_2 
_geom_bond_distance 
_geom_bond_site_symmetry_2 
_ccdc_geom_bond_type 
O1          C516   1.260       .  A
O1         Cd518   2.501   1_554  S
C2           O11   1.264       .  A
C2            O7   1.263   1_554  A
C2           C27   1.422       .  S
O3            C9   1.262       .  A
O3           Cd6   2.403       .  S
C4           O12   1.271       .  A
C4          O513   1.260       .  A
C4          C659   1.467       .  S
C5           O10   1.258       .  A
C5            O8   1.272       .  A
C5           C59   1.474       .  S
Cd6          O12   2.351       .  S
Cd6          O10   2.382       .  S
Cd6           O8   2.525       .  S
Cd6         O513   2.501       .  S
Cd6         O525   2.465       .  S
Cd6         O523   2.347       .  S
Cd6         O519   2.384       .  S
O7         Cd518   2.384       .  S
C9          O525   1.262       .  A
C9          C208   1.464       .  S
O11        Cd518   2.347   1_554  S
O13         C521   1.262       .  A
O13        Cd518   2.464       .  S
C14          C15   1.517       .  S
C14          C20   1.535       .  S
C14          C18   1.506       .  S
C14         C299   1.507       .  S
C15          H22   1.087       .  S
C15          C16   1.366       .  D
C16         C201   1.461       .  S
C16          C17   1.541       .  S
C17          C21   1.557       .  S
C17          C19   1.552       .  S
C17          H23   1.104       .  S
C18          H24   1.089       .  S
C18          C19   1.345       .  D
C19         C130   1.467       .  S
C20          H25   1.085       .  S
C20          C21   1.403       .  D
C21          C64   1.564       .  S
O26          C29   1.258       .  A
O26         Cd31   2.424       .  S
C27          O36   1.266       .  A
C27          O32   1.263       .  A
O28          C34   1.278       .  A
O28         Cd31   2.539       .  S
C29          O37   1.278       .  A
C29         C512   1.547       .  S
C30          O35   1.266       .  A
C30          O33   1.265       .  A
C30          C43   1.481       .  S
Cd31         O38   2.532       .  S
Cd31         O37   2.569       .  S
Cd31         O36   2.383       .  S
Cd31         O32   2.331       .  S
Cd31         O35   2.503       .  S
Cd31         O33   2.505       .  S
C34          O38   1.257       .  A
C34         C182   1.501       .  S
O39          C42   1.272       .  A
O39         Cd44   2.553       .  S
C40          O49   1.259       .  A
C40         O557   1.271       .  A
C40          C54   1.486       .  S
O41         C559   1.271   1_554  A
O41         Cd44   2.463       .  S
C42          O50   1.265       .  A
C42         C128   1.563       .  S
C43          O48   1.268       .  A
C43          O46   1.265       .  A
Cd44         O50   2.523       .  S
Cd44         O45   2.552   1_554  S
Cd44         O48   2.524       .  S
Cd44         O46   2.488       .  S
Cd44        O563   2.539   1_554  S
Cd44        O561   2.421   1_554  S
O45         C552   1.271       .  A
C47          O51   1.259       .  A
C47         O553   1.271       .  A
C47         C270   1.513       .  S
O49        Cd556   2.421       .  S
O51        Cd556   2.539       .  S
C52          C53   1.575       .  S
C52          C58   1.564       .  S
C52          C56   1.578       .  S
C52          C64   1.656       .  S
C53          H60   1.083       .  S
C53          C54   1.355       .  D
C54          C55   1.520       .  S
C55          C59   1.523       .  S
C55          C57   1.522       .  S
C55          H61   1.110       .  S
C56          H62   1.080       .  S
C56          C57   1.392       .  D
C57         C162   1.499       .  S
C58          H63   1.082       .  S
C58          C59   1.358       .  D
C64         C104   1.561       .  S
C64         C477   1.547       .  S
O65         C580   1.262       .  A
O65        Cd582   2.517       .  S
C66          O71   1.265       .  A
C66         O587   1.264       .  A
C66          C91   1.426       .  S
O67          C73   1.259       .  A
O67         Cd70   2.401       .  S
C68          O76   1.270   1_556  A
C68         O577   1.262       .  A
C68         C723   1.471       .  S
C69          O74   1.265       .  A
C69          O72   1.264       .  A
C69         C149   1.464       .  S
Cd70         O77   2.492       .  S
Cd70         O76   2.333       .  S
Cd70         O75   2.338       .  S
Cd70         O74   2.403       .  S
Cd70         O72   2.445       .  S
Cd70        O577   2.517   1_554  S
Cd70        O583   2.393       .  S
O71        Cd582   2.393       .  S
C73          O77   1.273       .  A
C73         C123   1.468       .  S
O75         C578   1.264       .  A
C78          C79   1.533       .  S
C78          C84   1.521       .  S
C78          C82   1.505       .  S
C78         C363   1.510       .  S
C79          H86   1.085       .  S
C79          C80   1.400       .  D
C80          C81   1.555       .  S
C80         C128   1.560       .  S
C81          C85   1.543       .  S
C81          C83   1.551       .  S
C81          H87   1.104       .  S
C82          H88   1.089       .  S
C82          C83   1.345       .  D
C83         C196   1.469       .  S
C84          H89   1.085       .  S
C84          C85   1.371       .  D
C85         C137   1.465       .  S
O90          C93   1.259       .  A
O90         Cd95   2.417       .  S
C91         O100   1.267       .  A
C91          O96   1.263       .  A
O92          C98   1.263       .  A
O92         Cd95   2.475       .  S
C93         O101   1.277       .  A
C93         C448   1.548       .  S
C94          O99   1.275       .  A
C94          O97   1.261       .  A
C94         C249   1.499       .  S
Cd95        O102   2.504       .  S
Cd95        O101   2.557       .  S
Cd95        O100   2.407       .  S
Cd95         O96   2.342       .  S
Cd95         O99   2.513       .  S
Cd95         O97   2.536       .  S
C98         O102   1.265       .  A
C98         C107   1.473       .  S
O103        C106   1.272       .  A
O103       Cd620   2.539   1_554  S
C104        O113   1.266       .  A
C104        O109   1.272       .  A
O105        C111   1.271       .  A
O105       Cd620   2.432   1_554  S
C106        O114   1.258       .  A
C106        C121   1.480       .  S
C107        O112   1.268       .  A
C107        O110   1.266       .  A
Cd108       O113   2.532       .  S
Cd108       O109   2.544       .  S
Cd108       O112   2.499       .  S
Cd108       O110   2.465       .  S
Cd108       O615   2.539       .  S
Cd108       O617   2.432       .  S
Cd108       O627   2.540       .  S
Cd108       O626   2.406       .  S
C111        O115   1.259       .  A
C111        C334   1.511       .  S
O114       Cd620   2.405   1_554  S
O115       Cd620   2.540   1_554  S
C116        C117   1.580       .  S
C116        C122   1.562       .  S
C116        C120   1.569       .  S
C116        C128   1.653       .  S
C117        H124   1.080       .  S
C117        C118   1.395       .  D
C118        C226   1.500       .  S
C118        C119   1.523       .  S
C119        C123   1.519       .  S
C119        C121   1.522       .  S
C119        H125   1.111       .  S
C120        H126   1.083       .  S
C120        C121   1.353       .  D
C122        H127   1.083       .  S
C122        C123   1.355       .  D
C128        C411   1.546       .  S
O129        C132   1.265       .  A
O129       Cd134   2.392       .  S
C130        O139   1.271       .  A
C130        O135   1.261       .  A
O131        C137   1.265       .  A
O131       Cd134   2.405       .  S
C132        O140   1.263       .  A
C132        C157   1.423       .  S
C133        O138   1.259       .  A
C133        O136   1.274       .  A
C133        C187   1.466       .  S
Cd134       O141   2.442       .  S
Cd134       O140   2.328       .  S
Cd134       O139   2.339       .  S
Cd134       O135   2.493       .  S
Cd134       O138   2.402       .  S
Cd134       O136   2.482       .  S
C137        O141   1.264       .  A
C142        C143   1.537       .  S
C142        C148   1.519   1_545  S
C142        C146   1.506       .  S
C142        C491   1.512       .  S
C143        H150   1.085       .  S
C143        C144   1.403       .  D
C144        C145   1.553       .  S
C144        C192   1.559       .  S
C145        C149   1.543   1_545  S
C145        C147   1.551       .  S
C145        H151   1.103       .  S
C146        H152   1.089       .  S
C146        C147   1.344       .  D
C147        C516   1.467       .  S
C148        H153   1.085       .  S
C148        C149   1.368       .  D
O154        C157   1.263       .  A
O154       Cd159   2.335       .  S
C155        O164   1.276       .  A
C155        O160   1.258       .  A
C155        C320   1.547       .  S
O156        C162   1.275       .  A
O156       Cd159   2.507       .  S
C157        O165   1.267       .  A
C158        O163   1.265       .  A
C158        O161   1.265       .  A
C158        C171   1.475       .  S
Cd159       O166   2.547       .  S
Cd159       O165   2.398       .  S
Cd159       O164   2.570       .  S
Cd159       O160   2.410       .  S
Cd159       O163   2.489       .  S
Cd159       O161   2.493       .  S
C162        O166   1.259       .  A
O167        C170   1.270       .  A
O167       Cd172   2.531       .  S
C168        O177   1.266       .  A
C168        O173   1.271       .  A
C168        C256   1.560       .  S
O169        C175   1.270   1_565  A
O169       Cd172   2.449   1_565  S
C170        O178   1.257       .  A
C170        C185   1.476       .  S
C171        O176   1.267       .  A
C171        O174   1.265       .  A
Cd172       O179   2.537       .  S
Cd172       O178   2.409       .  S
Cd172       O177   2.532   1_545  S
Cd172       O173   2.536   1_545  S
Cd172       O176   2.500       .  S
Cd172       O174   2.476       .  S
C175        O179   1.261       .  A
C175        C462   1.512       .  S
C180        C181   1.580       .  S
C180        C186   1.559       .  S
C180        C184   1.570       .  S
C180        C192   1.655       .  S
C181        H188   1.078       .  S
C181        C182   1.397       .  D
C182        C183   1.523       .  S
C183        C187   1.519       .  S
C183        C185   1.521       .  S
C183        H189   1.112       .  S
C184        H190   1.083       .  S
C184        C185   1.352       .  D
C186        H191   1.083       .  S
C186        C187   1.355       .  D
C192        C232   1.558       .  S
C192        C283   1.548       .  S
O193        C196   1.261       .  A
O193       Cd198   2.508       .  S
C194        O203   1.264       .  A
C194        O199   1.264       .  A
C194        C219   1.422       .  S
O195        C201   1.264       .  A
O195       Cd198   2.398       .  S
C196        O204   1.270       .  A
C197        O202   1.260       .  A
C197        O200   1.273       .  A
C197        C251   1.469       .  S
Cd198       O205   2.448       .  S
Cd198       O204   2.338       .  S
Cd198       O203   2.330       .  S
Cd198       O199   2.397       .  S
Cd198       O202   2.403       .  S
Cd198       O200   2.494       .  S
C201        O205   1.263       .  A
C206        C207   1.516   1_565  S
C206        C212   1.533       .  S
C206        C210   1.505       .  S
C206        C431   1.509       .  S
C207        H214   1.086       .  S
C207        C208   1.366       .  D
C208        C209   1.543   1_545  S
C209        C213   1.561       .  S
C209        C211   1.553       .  S
C209        H215   1.104       .  S
C210        H728   1.089       .  S
C210        C211   1.346       .  D
C211        C580   1.471       .  S
C212        H217   1.085       .  S
C212        C213   1.403       .  D
C213        C256   1.565       .  S
H216        C722   1.089   1_554  S
O218        C221   1.258       .  A
O218       Cd223   2.409       .  S
C219        O228   1.266       .  A
C219        O224   1.261       .  A
O220        C226   1.276       .  A
O220       Cd223   2.513       .  S
C221        O229   1.277       .  A
C221        C384   1.547       .  S
C222        O227   1.265       .  A
C222        O225   1.266       .  A
C222        C239   1.477       .  S
Cd223       O230   2.543       .  S
Cd223       O229   2.571       .  S
Cd223       O228   2.404       .  S
Cd223       O224   2.326       .  S
Cd223       O227   2.487       .  S
Cd223       O225   2.507       .  S
C226        O230   1.259       .  A
O231        C234   1.272       .  A
O231       Cd236   2.547       .  S
C232        O241   1.265   1_545  A
C232        O237   1.272       .  A
O233        C239   1.268       .  A
O233       Cd236   2.514       .  S
C234        O242   1.258       .  A
C234        C246   1.483       .  S
C235        O240   1.271       .  A
C235        O238   1.260       .  A
C235        C398   1.512       .  S
Cd236       O243   2.471       .  S
Cd236       O242   2.409       .  S
Cd236       O241   2.512       .  S
Cd236       O237   2.539   1_565  S
Cd236       O240   2.453       .  S
Cd236       O238   2.538       .  S
C239        O243   1.264       .  A
C244        C245   1.574       .  S
C244        C250   1.562       .  S
C244        C248   1.576       .  S
C244        C256   1.655       .  S
C245        H252   1.084       .  S
C245        C246   1.355       .  D
C246        C247   1.522       .  S
C247        C251   1.522       .  S
C247        C249   1.525       .  S
C247        H253   1.111       .  S
C248        H254   1.082       .  S
C248        C249   1.391       .  D
C250        H255   1.082       .  S
C250        C251   1.356       .  D
C256        C349   1.547       .  S
O257        C260   1.263       .  A
O257       Cd262   2.401       .  S
C258        O267   1.270       .  A
C258        O263   1.261   1_655  A
C258        C467   1.467       .  S
O259        C265   1.265       .  A
O259       Cd262   2.402       .  S
C260        O268   1.263       .  A
C260        C285   1.422       .  S
C261        O266   1.261       .  A
C261        O264   1.274   1_455  A
C261        C315   1.469       .  S
Cd262       O269   2.458       .  S
Cd262       O268   2.328       .  S
Cd262       O267   2.345   1_455  S
Cd262       O263   2.503       .  S
Cd262       O266   2.411       .  S
Cd262       O264   2.486   1_455  S
C265        O269   1.264       .  A
C265        C405   1.467       .  S
C270        C271   1.536       .  S
C270        C276   1.519       .  S
C270        C274   1.506       .  S
C271        H278   1.085       .  S
C271        C272   1.402       .  D
C272        C273   1.560       .  S
C272        C320   1.566       .  S
C273        C277   1.545       .  S
C273        C275   1.555       .  S
C273        H279   1.104       .  S
C274        H792   1.089       .  S
C274        C275   1.345       .  D
C275        C964   1.474       .  S
C276        H281   1.085       .  S
C276        C277   1.369       .  D
C277        C393   1.467       .  S
H280        C786   1.089       .  S
O282        C285   1.261       .  A
O282       Cd287   2.323       .  S
C283        O292   1.278       .  A
C283        O288   1.258       .  A
O284        C290   1.276       .  A
O284       Cd287   2.504       .  S
C285        O293   1.267       .  A
C286        O291   1.264       .  A
C286        O289   1.267       .  A
C286        C303   1.474       .  S
Cd287       O294   2.548       .  S
Cd287       O293   2.405       .  S
Cd287       O292   2.577       .  S
Cd287       O288   2.404       .  S
Cd287       O291   2.471       .  S
Cd287       O289   2.507       .  S
C290        O294   1.259       .  A
C290        C505   1.500       .  S
O295        C298   1.272       .  A
O295       Cd300   2.544       .  S
C296        O305   1.257       .  A
C296        O301   1.272       .  A
C296        C313   1.479       .  S
O297        C303   1.268       .  A
O297       Cd300   2.505       .  S
C298        O306   1.266       .  A
C298        C384   1.560       .  S
C299        O304   1.270       .  A
C299        O302   1.259       .  A
Cd300       O307   2.458       .  S
Cd300       O306   2.519       .  S
Cd300       O305   2.395       .  S
Cd300       O301   2.537       .  S
Cd300       O304   2.444       .  S
Cd300       O302   2.528       .  S
C303        O307   1.265       .  A
C308        C309   1.580   1_655  S
C308        C314   1.562       .  S
C308        C312   1.569   1_655  S
C308        C320   1.654       .  S
C309        H316   1.079       .  S
C309        C310   1.396       .  D
C310        C482   1.504       .  S
C310        C311   1.525       .  S
C311        C315   1.519       .  S
C311        C313   1.523       .  S
C311        H317   1.111       .  S
C312        H318   1.083   1_455  S
C312        C313   1.352       .  D
C314        H319   1.082       .  S
C314        C315   1.355   1_655  D
C320        C360   1.563       .  S
O321        C324   1.261       .  A
O321       Cd326   2.512       .  S
C322        O331   1.264       .  A
C322        O327   1.264       .  A
C322        C347   1.422       .  S
O323        C329   1.264       .  A
O323       Cd326   2.398   1_655  S
C324        O332   1.270       .  A
C324        C403   1.471       .  S
C325        O330   1.259       .  A
C325        O328   1.272       .  A
C325        C379   1.466       .  S
Cd326       O333   2.446       .  S
Cd326       O332   2.335       .  S
Cd326       O331   2.339   1_455  S
Cd326       O327   2.379   1_455  S
Cd326       O330   2.400       .  S
Cd326       O328   2.492       .  S
C329        O333   1.264   1_655  A
C329        C464   1.463       .  S
C334        C335   1.517       .  S
C334        C340   1.536       .  S
C334        C338   1.505       .  S
C335        H342   1.086       .  S
C335        C336   1.366       .  D
C336        C457   1.466       .  S
C336        C337   1.544       .  S
C337        C341   1.556       .  S
C337        C339   1.549       .  S
C337        H343   1.105       .  S
C338        H344   1.089       .  S
C338        C339   1.345       .  D
C339        C386   1.465       .  S
C340        H345   1.086       .  S
C340        C341   1.404       .  D
C341        C384   1.560       .  S
O346        C349   1.258       .  A
O346       Cd351   2.414       .  S
C347        O356   1.266       .  A
C347        O352   1.262       .  A
O348        C354   1.276       .  A
O348       Cd351   2.539       .  S
C349        O357   1.277       .  A
C350        O355   1.266       .  A
C350        O353   1.265       .  A
C350        C367   1.477       .  S
Cd351       O358   2.546       .  S
Cd351       O357   2.567       .  S
Cd351       O356   2.389       .  S
Cd351       O352   2.345       .  S
Cd351       O355   2.492       .  S
Cd351       O353   2.504       .  S
C354        O358   1.259       .  A
C354        C438   1.505       .  S
O359        C362   1.271       .  A
O359       Cd364   2.546       .  S
C360        O369   1.265       .  A
C360        O365   1.273       .  A
O361        C367   1.269       .  A
O361       Cd364   2.516       .  S
C362        O370   1.258       .  A
C362        C374   1.483   1_655  S
C363        O368   1.270       .  A
C363        O366   1.259       .  A
Cd364       O371   2.469       .  S
Cd364       O370   2.421       .  S
Cd364       O369   2.536       .  S
Cd364       O365   2.542       .  S
Cd364       O368   2.471       .  S
Cd364       O366   2.526       .  S
C367        O371   1.264       .  A
C372        C373   1.571       .  S
C372        C378   1.561       .  S
C372        C376   1.581       .  S
C372        C384   1.654       .  S
C373        H380   1.083       .  S
C373        C374   1.355       .  D
C374        C375   1.523   1_455  S
C375        C379   1.520   1_655  S
C375        C377   1.527       .  S
C375        H381   1.111       .  S
C376        H382   1.080       .  S
C376        C377   1.396   1_455  D
C377        C418   1.507       .  S
C378        H383   1.083       .  S
C378        C379   1.353       .  D
O385        C388   1.264   1_556  A
O385       Cd902   2.391   1_655  S
C386        O391   1.261       .  A
C386        O907   1.270   1_554  A
O387        C393   1.266       .  A
O387       Cd390   2.403   1_655  S
C388        O396   1.263       .  A
C388        C413   1.421       .  S
C389        O394   1.259       .  A
C389        O904   1.274       .  A
C389        C443   1.465       .  S
Cd390       O395   2.321       .  S
Cd390       O394   2.398       .  S
Cd390       O897   2.392   1_455  S
Cd390       O909   2.453       .  S
Cd390       O908   2.320   1_455  S
Cd390       O903   2.499       .  S
Cd390       O904   2.478       .  S
O391       Cd902   2.499   1_554  S
O392        C901   1.274       .  A
O392       Cd902   2.478       .  S
C393        O909   1.264   1_655  A
O395        C898   1.270       .  A
O396       Cd902   2.320   1_654  S
O397        C905   1.264   1_455  A
O397       Cd902   2.453       .  S
C398        C399   1.534       .  S
C398        C404   1.519   1_565  S
C398        C402   1.506       .  S
C399        H406   1.085       .  S
C399        C400   1.403       .  D
C400        C401   1.557       .  S
C400        C448   1.564       .  S
C401        C405   1.546   1_565  S
C401        C403   1.553       .  S
C401        H407   1.104       .  S
C402        H408   1.089       .  S
C402        C403   1.344       .  D
C404        H409   1.086       .  S
C404        C405   1.369       .  D
O410        C413   1.263       .  A
O410       Cd415   2.323       .  S
C411        O420   1.276       .  A
C411        O416   1.257       .  A
O412        C418   1.274       .  A
O412       Cd415   2.529       .  S
C413        O421   1.267       .  A
C414        O419   1.266       .  A
C414        O417   1.264       .  A
C414        C427   1.471       .  S
Cd415       O422   2.571       .  S
Cd415       O421   2.397       .  S
Cd415       O420   2.567       .  S
Cd415       O416   2.422       .  S
Cd415       O419   2.488       .  S
Cd415       O417   2.481       .  S
C418        O422   1.259       .  A
O423        C938   1.269       .  A
O423       Cd428   2.526   1_556  S
C424        O433   1.265   1_545  A
C424        O429   1.272       .  A
C424        C512   1.561       .  S
O425        C943   1.271   1_554  A
O425       Cd428   2.435       .  S
C426        O434   1.260       .  A
C426        O935   1.269       .  A
C426        C441   1.481   1_655  S
C427        O432   1.266       .  A
C427        O430   1.265       .  A
Cd428       O433   2.524       .  S
Cd428       O429   2.557   1_565  S
Cd428       O432   2.491       .  S
Cd428       O430   2.476       .  S
Cd428       O947   2.531   1_554  S
Cd428       O946   2.433       .  S
C431        O435   1.260       .  A
C431        O937   1.271       .  A
O434       Cd940   2.433       .  S
O435       Cd940   2.531       .  S
C436        C437   1.579       .  S
C436        C442   1.561       .  S
C436        C440   1.570       .  S
C436        C448   1.655       .  S
C437        H444   1.078       .  S
C437        C438   1.396   1_455  D
C438        C439   1.528       .  S
C439        C443   1.519   1_655  S
C439        C441   1.522   1_655  S
C439        H445   1.112       .  S
C440        H446   1.083       .  S
C440        C441   1.354       .  D
C442        H447   1.083       .  S
C442        C443   1.353       .  D
C448        C488   1.560       .  S
O449        C964   1.261   1_455  A
O449       Cd966   2.517       .  S
C450        O455   1.264       .  A
C450        O971   1.262       .  A
C450        C475   1.422       .  S
O451        C457   1.264       .  A
O451       Cd454   2.401       .  S
C452        O460   1.271   1_556  A
C452        O961   1.261   1_655  A
C452        C787   1.474       .  S
C453        O458   1.260       .  A
C453        O456   1.273   1_455  A
C453        C507   1.472       .  S
Cd454       O461   2.466       .  S
Cd454       O460   2.355   1_455  S
Cd454       O459   2.315       .  S
Cd454       O458   2.423       .  S
Cd454       O456   2.501   1_455  S
Cd454       O961   2.517   1_554  S
Cd454       O967   2.413       .  S
O455       Cd966   2.413       .  S
C457        O461   1.264       .  A
O459        C962   1.262       .  A
C462        C463   1.519   1_545  S
C462        C468   1.536       .  S
C462        C466   1.507       .  S
C463        H470   1.086       .  S
C463        C464   1.369       .  D
C464        C465   1.543   1_565  S
C465        C469   1.553       .  S
C465        C467   1.550       .  S
C465        H471   1.105       .  S
C466        H472   1.089       .  S
C466        C467   1.346       .  D
C468        H473   1.085       .  S
C468        C469   1.403       .  D
C469        C512   1.562       .  S
O474        C477   1.258       .  A
O474       Cd479   2.413       .  S
C475        O484   1.266       .  A
C475        O480   1.261       .  A
O476        C482   1.276       .  A
O476       Cd479   2.530       .  S
C477        O485   1.277       .  A
C478        O483   1.266       .  A
C478        O481   1.265       .  A
C478        C495   1.479       .  S
Cd479       O486   2.549       .  S
Cd479       O485   2.571       .  S
Cd479       O484   2.409       .  S
Cd479       O480   2.324       .  S
Cd479       O483   2.493       .  S
Cd479       O481   2.505       .  S
C482        O486   1.259       .  A
O487        C490   1.272       .  A
O487      Cd1004   2.560   1_554  S
C488        O497   1.265       .  A
C488        O493   1.273       .  A
O489        C495   1.269       .  A
O489       Cd492   2.522       .  S
C490        O498   1.259       .  A
C490        C502   1.486       .  S
C491        O496   1.271   1_545  A
C491        O494   1.259       .  A
Cd492       O499   2.479       .  S
Cd492       O497   2.522   1_545  S
Cd492       O493   2.537   1_545  S
Cd492       O999   2.560       .  S
Cd492      O1010   2.407       .  S
Cd492      O1008   2.464   1_545  S
Cd492      O1006   2.534       .  S
O494      Cd1004   2.534   1_554  S
C495        O499   1.265       .  A
O496      Cd1004   2.464   1_564  S
O498      Cd1004   2.407   1_554  S
C500        C501   1.575   1_655  S
C500        C506   1.562       .  S
C500        C504   1.579   1_655  S
C500        C512   1.654       .  S
C501        H508   1.084   1_455  S
C501        C502   1.358       .  D
C502        C503   1.522       .  S
C503        C507   1.519       .  S
C503        C505   1.523       .  S
C503        H509   1.111       .  S
C504        H510   1.082       .  S
C504        C505   1.394       .  D
C506        H511   1.082       .  S
C506        C507   1.355   1_655  D
C514        O523   1.264       .  A
C514        O519   1.263       .  A
C514        C539   1.422       .  S
O515        C521   1.262       .  A
O515       Cd518   2.403       .  S
C516        O524   1.271       .  A
C517        O522   1.258       .  A
C517        O520   1.272       .  A
C517        C571   1.474       .  S
Cd518       O524   2.351   1_556  S
Cd518       O522   2.383       .  S
Cd518       O520   2.524       .  S
C521        C720   1.464       .  S
C526        C527   1.517       .  S
C526        C532   1.535       .  S
C526        C530   1.506       .  S
C526        C811   1.507       .  S
C527        H534   1.087       .  S
C527        C528   1.366       .  D
C528        C713   1.461       .  S
C528        C529   1.541       .  S
C529        C533   1.557       .  S
C529        C531   1.552       .  S
C529        H535   1.104       .  S
C530        H536   1.089       .  S
C530        C531   1.345       .  D
C531        C642   1.467       .  S
C532        H537   1.085       .  S
C532        C533   1.403       .  D
C533        C576   1.564       .  S
O538        C541   1.258       .  A
O538       Cd543   2.424       .  S
C539        O548   1.266       .  A
C539        O544   1.263       .  A
O540        C546   1.278       .  A
O540       Cd543   2.539       .  S
C541        O549   1.278       .  A
C541       C1024   1.547       .  S
C542        O547   1.266       .  A
C542        O545   1.265       .  A
C542        C555   1.481       .  S
Cd543       O550   2.531       .  S
Cd543       O549   2.569       .  S
Cd543       O548   2.383       .  S
Cd543       O544   2.331       .  S
Cd543       O547   2.503       .  S
Cd543       O545   2.506       .  S
C546        O550   1.257       .  A
C546        C694   1.501       .  S
O551        C554   1.272       .  A
O551       Cd556   2.553       .  S
C552        O561   1.259       .  A
C552        C566   1.485       .  S
O553       Cd556   2.463       .  S
C554        O562   1.265       .  A
C554        C640   1.563       .  S
C555        O560   1.268       .  A
C555        O558   1.265       .  A
Cd556       O562   2.524       .  S
Cd556       O557   2.552       .  S
Cd556       O560   2.524       .  S
Cd556       O558   2.488       .  S
C559        O563   1.259       .  A
C559        C782   1.513       .  S
C564        C565   1.575       .  S
C564        C570   1.564       .  S
C564        C568   1.578       .  S
C564        C576   1.656       .  S
C565        H572   1.083       .  S
C565        C566   1.355       .  D
C566        C567   1.520       .  S
C567        C571   1.523       .  S
C567        C569   1.522       .  S
C567        H573   1.110       .  S
C568        H574   1.080       .  S
C568        C569   1.392       .  D
C569        C674   1.499       .  S
C570        H575   1.082       .  S
C570        C571   1.358       .  D
C576        C616   1.561       .  S
C576        C989   1.547       .  S
C578        O583   1.265       .  A
C578        C603   1.426   1_554  S
O579        C585   1.259       .  A
O579       Cd582   2.401       .  S
C580        O588   1.270       .  A
C581        O586   1.265       .  A
C581        O584   1.264       .  A
C581        C661   1.464       .  S
Cd582       O589   2.492       .  S
Cd582       O588   2.333       .  S
Cd582       O587   2.338       .  S
Cd582       O586   2.403       .  S
Cd582       O584   2.445       .  S
C585        O589   1.273       .  A
C585        C635   1.468       .  S
C590        C591   1.533       .  S
C590        C596   1.521       .  S
C590        C594   1.505       .  S
C590        C875   1.510       .  S
C591        H598   1.085       .  S
C591        C592   1.400       .  D
C592        C593   1.555       .  S
C592        C640   1.560       .  S
C593        C597   1.543       .  S
C593        C595   1.551       .  S
C593        H599   1.104       .  S
C594        H600   1.089       .  S
C594        C595   1.345       .  D
C595        C708   1.469       .  S
C596        H601   1.085       .  S
C596        C597   1.371       .  D
C597        C649   1.465       .  S
O602        C605   1.259       .  A
O602       Cd607   2.417       .  S
C603        O612   1.267       .  A
C603        O608   1.263       .  A
O604        C610   1.263       .  A
O604       Cd607   2.475       .  S
C605        O613   1.277       .  A
C605        C960   1.548       .  S
C606        O611   1.275       .  A
C606        O609   1.261       .  A
C606        C761   1.499       .  S
Cd607       O614   2.505       .  S
Cd607       O613   2.557       .  S
Cd607       O612   2.407       .  S
Cd607       O608   2.342       .  S
Cd607       O611   2.513       .  S
Cd607       O609   2.536       .  S
C610        O614   1.265       .  A
C610        C619   1.473       .  S
O615        C618   1.272       .  A
C616        O625   1.266       .  A
C616        O621   1.272       .  A
O617        C623   1.271       .  A
C618        O626   1.258       .  A
C618        C633   1.480       .  S
C619        O624   1.268       .  A
C619        O622   1.266       .  A
Cd620       O625   2.531       .  S
Cd620       O621   2.544       .  S
Cd620       O624   2.499       .  S
Cd620       O622   2.465       .  S
C623        O627   1.259       .  A
C623        C846   1.511       .  S
C628        C629   1.580       .  S
C628        C634   1.562       .  S
C628        C632   1.569       .  S
C628        C640   1.653       .  S
C629        H636   1.080       .  S
C629        C630   1.395       .  D
C630        C738   1.500       .  S
C630        C631   1.523       .  S
C631        C635   1.519       .  S
C631        C633   1.522       .  S
C631        H637   1.111       .  S
C632        H638   1.083       .  S
C632        C633   1.353       .  D
C634        H639   1.083       .  S
C634        C635   1.355       .  D
C640        C923   1.546       .  S
O641        C644   1.265       .  A
O641       Cd646   2.392       .  S
C642        O651   1.271       .  A
C642        O647   1.261       .  A
O643        C649   1.265       .  A
O643       Cd646   2.405       .  S
C644        O652   1.263       .  A
C644        C669   1.423       .  S
C645        O650   1.259       .  A
C645        O648   1.274       .  A
C645        C699   1.466       .  S
Cd646       O653   2.442       .  S
Cd646       O652   2.328       .  S
Cd646       O651   2.339       .  S
Cd646       O647   2.493       .  S
Cd646       O650   2.401       .  S
Cd646       O648   2.482       .  S
C649        O653   1.264       .  A
C654        C655   1.537       .  S
C654        C660   1.519   1_545  S
C654        C658   1.506       .  S
C654       C1003   1.512       .  S
C655        H662   1.085       .  S
C655        C656   1.403       .  D
C656        C657   1.553       .  S
C656        C704   1.559       .  S
C657        C661   1.543   1_545  S
C657        C659   1.551       .  S
C657        H663   1.103       .  S
C658        H664   1.089       .  S
C658        C659   1.344       .  D
C660        H665   1.085       .  S
C660        C661   1.368       .  D
O666        C669   1.263       .  A
O666       Cd671   2.335       .  S
C667        O676   1.276       .  A
C667        O672   1.258       .  A
C667        C832   1.547       .  S
O668        C674   1.275       .  A
O668       Cd671   2.507       .  S
C669        O677   1.267       .  A
C670        O675   1.265       .  A
C670        O673   1.265       .  A
C670        C683   1.475       .  S
Cd671       O678   2.547       .  S
Cd671       O677   2.398       .  S
Cd671       O676   2.570       .  S
Cd671       O672   2.410       .  S
Cd671       O675   2.489       .  S
Cd671       O673   2.493       .  S
C674        O678   1.259       .  A
O679        C682   1.270       .  A
O679       Cd684   2.531       .  S
C680        O689   1.266       .  A
C680        O685   1.271       .  A
C680        C768   1.560       .  S
O681        C687   1.270   1_565  A
O681       Cd684   2.449   1_565  S
C682        O690   1.257       .  A
C682        C697   1.477       .  S
C683        O688   1.267       .  A
C683        O686   1.265       .  A
Cd684       O691   2.537       .  S
Cd684       O690   2.409       .  S
Cd684       O689   2.532   1_545  S
Cd684       O685   2.536   1_545  S
Cd684       O688   2.500       .  S
Cd684       O686   2.476       .  S
C687        O691   1.261       .  A
C687        C974   1.512       .  S
C692        C693   1.580       .  S
C692        C698   1.559       .  S
C692        C696   1.570       .  S
C692        C704   1.655       .  S
C693        H700   1.078       .  S
C693        C694   1.397       .  D
C694        C695   1.523       .  S
C695        C699   1.519       .  S
C695        C697   1.521       .  S
C695        H701   1.112       .  S
C696        H702   1.083       .  S
C696        C697   1.352       .  D
C698        H703   1.083       .  S
C698        C699   1.355       .  D
C704        C744   1.558       .  S
C704        C795   1.548       .  S
O705        C708   1.261       .  A
O705       Cd710   2.509       .  S
C706        O715   1.264       .  A
C706        O711   1.264       .  A
C706        C731   1.423       .  S
O707        C713   1.264       .  A
O707       Cd710   2.398       .  S
C708        O716   1.270       .  A
C709        O714   1.260       .  A
C709        O712   1.273       .  A
C709        C763   1.469       .  S
Cd710       O717   2.448       .  S
Cd710       O716   2.338       .  S
Cd710       O715   2.331       .  S
Cd710       O711   2.397       .  S
Cd710       O714   2.403       .  S
Cd710       O712   2.495       .  S
C713        O717   1.263       .  A
C718        C719   1.516   1_565  S
C718        C724   1.533       .  S
C718        C722   1.505       .  S
C718        C943   1.509       .  S
C719        H726   1.086       .  S
C719        C720   1.366       .  D
C720        C721   1.543   1_545  S
C721        C725   1.561       .  S
C721        C723   1.553       .  S
C721        H727   1.104       .  S
C722        C723   1.346       .  D
C724        H729   1.085       .  S
C724        C725   1.403       .  D
C725        C768   1.565       .  S
O730        C733   1.258       .  A
O730       Cd735   2.408       .  S
C731        O740   1.266       .  A
C731        O736   1.261       .  A
O732        C738   1.276       .  A
O732       Cd735   2.513       .  S
C733        O741   1.277       .  A
C733        C896   1.547       .  S
C734        O739   1.265       .  A
C734        O737   1.266       .  A
C734        C751   1.477       .  S
Cd735       O742   2.542       .  S
Cd735       O741   2.572       .  S
Cd735       O740   2.404       .  S
Cd735       O736   2.326       .  S
Cd735       O739   2.487       .  S
Cd735       O737   2.507       .  S
C738        O742   1.259       .  A
O743        C746   1.272       .  A
O743       Cd748   2.547       .  S
C744        O753   1.265   1_545  A
C744        O749   1.272       .  A
O745        C751   1.268       .  A
O745       Cd748   2.514       .  S
C746        O754   1.258       .  A
C746        C758   1.483       .  S
C747        O752   1.271       .  A
C747        O750   1.260       .  A
C747        C910   1.512       .  S
Cd748       O755   2.471       .  S
Cd748       O754   2.409       .  S
Cd748       O753   2.512       .  S
Cd748       O749   2.540   1_565  S
Cd748       O752   2.454       .  S
Cd748       O750   2.538       .  S
C751        O755   1.264       .  A
C756        C757   1.574       .  S
C756        C762   1.562       .  S
C756        C760   1.576       .  S
C756        C768   1.655       .  S
C757        H764   1.084       .  S
C757        C758   1.355       .  D
C758        C759   1.521       .  S
C759        C763   1.522       .  S
C759        C761   1.525       .  S
C759        H765   1.111       .  S
C760        H766   1.082       .  S
C760        C761   1.391       .  D
C762        H767   1.082       .  S
C762        C763   1.356       .  D
C768        C861   1.547       .  S
O769        C772   1.263       .  A
O769       Cd774   2.401       .  S
C770        O779   1.270       .  A
C770        O775   1.261   1_655  A
C770        C979   1.467       .  S
O771        C777   1.265       .  A
O771       Cd774   2.402       .  S
C772        O780   1.263       .  A
C772        C797   1.422       .  S
C773        O778   1.261       .  A
C773        O776   1.274   1_455  A
C773        C827   1.469       .  S
Cd774       O781   2.457       .  S
Cd774       O780   2.328       .  S
Cd774       O779   2.345   1_455  S
Cd774       O775   2.503       .  S
Cd774       O778   2.411       .  S
Cd774       O776   2.487   1_455  S
C777        O781   1.264       .  A
C777        C917   1.467       .  S
C782        C783   1.536       .  S
C782        C788   1.519       .  S
C782        C786   1.506       .  S
C783        H790   1.085       .  S
C783        C784   1.402       .  D
C784        C785   1.560       .  S
C784        C832   1.566       .  S
C785        C789   1.545       .  S
C785        C787   1.556       .  S
C785        H791   1.104       .  S
C786        C787   1.345       .  D
C788        H793   1.085       .  S
C788        C789   1.369       .  D
C789        C905   1.467       .  S
O794        C797   1.261       .  A
O794       Cd799   2.323       .  S
C795        O804   1.278       .  A
C795        O800   1.258       .  A
O796        C802   1.276       .  A
O796       Cd799   2.504       .  S
C797        O805   1.267       .  A
C798        O803   1.264       .  A
C798        O801   1.267       .  A
C798        C815   1.474       .  S
Cd799       O806   2.548       .  S
Cd799       O805   2.405       .  S
Cd799       O804   2.577       .  S
Cd799       O800   2.404       .  S
Cd799       O803   2.472       .  S
Cd799       O801   2.507       .  S
C802        O806   1.259       .  A
C802       C1017   1.500       .  S
O807        C810   1.272       .  A
O807       Cd812   2.544       .  S
C808        O817   1.257       .  A
C808        O813   1.272       .  A
C808        C825   1.479       .  S
O809        C815   1.268       .  A
O809       Cd812   2.505       .  S
C810        O818   1.266       .  A
C810        C896   1.560       .  S
C811        O816   1.270       .  A
C811        O814   1.259       .  A
Cd812       O819   2.459       .  S
Cd812       O818   2.519       .  S
Cd812       O817   2.395       .  S
Cd812       O813   2.538       .  S
Cd812       O816   2.444       .  S
Cd812       O814   2.528       .  S
C815        O819   1.265       .  A
C820        C821   1.580   1_655  S
C820        C826   1.562       .  S
C820        C824   1.569   1_655  S
C820        C832   1.654       .  S
C821        H828   1.079       .  S
C821        C822   1.396       .  D
C822        C994   1.504       .  S
C822        C823   1.525       .  S
C823        C827   1.519       .  S
C823        C825   1.523       .  S
C823        H829   1.111       .  S
C824        H830   1.083   1_455  S
C824        C825   1.352       .  D
C826        H831   1.082       .  S
C826        C827   1.355   1_655  D
C832        C872   1.563       .  S
O833        C836   1.261       .  A
O833       Cd838   2.512       .  S
C834        O843   1.264       .  A
C834        O839   1.264       .  A
C834        C859   1.422       .  S
O835        C841   1.264       .  A
O835       Cd838   2.398   1_655  S
C836        O844   1.270       .  A
C836        C915   1.471       .  S
C837        O842   1.259       .  A
C837        O840   1.272       .  A
C837        C891   1.466       .  S
Cd838       O845   2.446       .  S
Cd838       O844   2.335       .  S
Cd838       O843   2.340   1_455  S
Cd838       O839   2.380   1_455  S
Cd838       O842   2.401       .  S
Cd838       O840   2.492       .  S
C841        O845   1.263   1_655  A
C841        C976   1.463       .  S
C846        C847   1.517       .  S
C846        C852   1.536       .  S
C846        C850   1.505       .  S
C847        H854   1.086       .  S
C847        C848   1.366       .  D
C848        C969   1.466       .  S
C848        C849   1.544       .  S
C849        C853   1.556       .  S
C849        C851   1.549       .  S
C849        H855   1.105       .  S
C850        H856   1.089       .  S
C850        C851   1.345       .  D
C851        C898   1.465       .  S
C852        H857   1.086       .  S
C852        C853   1.404       .  D
C853        C896   1.560       .  S
O858        C861   1.258       .  A
O858       Cd863   2.414       .  S
C859        O868   1.266       .  A
C859        O864   1.262       .  A
O860        C866   1.276       .  A
O860       Cd863   2.539       .  S
C861        O869   1.277       .  A
C862        O867   1.266       .  A
C862        O865   1.265       .  A
C862        C879   1.477       .  S
Cd863       O870   2.546       .  S
Cd863       O869   2.567       .  S
Cd863       O868   2.389       .  S
Cd863       O864   2.345       .  S
Cd863       O867   2.492       .  S
Cd863       O865   2.504       .  S
C866        O870   1.259       .  A
C866        C950   1.505       .  S
O871        C874   1.271       .  A
O871       Cd876   2.547       .  S
C872        O881   1.265       .  A
C872        O877   1.273       .  A
O873        C879   1.269       .  A
O873       Cd876   2.516       .  S
C874        O882   1.258       .  A
C874        C886   1.483   1_655  S
C875        O880   1.270       .  A
C875        O878   1.259       .  A
Cd876       O883   2.469       .  S
Cd876       O882   2.421       .  S
Cd876       O881   2.536       .  S
Cd876       O877   2.542       .  S
Cd876       O880   2.471       .  S
Cd876       O878   2.525       .  S
C879        O883   1.264       .  A
C884        C885   1.571       .  S
C884        C890   1.561       .  S
C884        C888   1.581       .  S
C884        C896   1.654       .  S
C885        H892   1.083       .  S
C885        C886   1.355       .  D
C886        C887   1.523   1_455  S
C887        C891   1.520   1_655  S
C887        C889   1.527       .  S
C887        H893   1.111       .  S
C888        H894   1.080       .  S
C888        C889   1.396   1_455  D
C889        C930   1.507       .  S
C890        H895   1.083       .  S
C890        C891   1.353       .  D
O897        C900   1.264       .  A
C898        O903   1.261       .  A
O899        C905   1.266       .  A
O899       Cd902   2.403   1_655  S
C900        O908   1.263       .  A
C900        C925   1.421       .  S
C901        O906   1.259       .  A
C901        C955   1.465       .  S
Cd902       O907   2.321       .  S
Cd902       O906   2.398       .  S
C910        C911   1.534       .  S
C910        C916   1.519   1_565  S
C910        C914   1.506       .  S
C911        H918   1.085       .  S
C911        C912   1.403       .  D
C912        C913   1.557       .  S
C912        C960   1.564       .  S
C913        C917   1.546   1_565  S
C913        C915   1.553       .  S
C913        H919   1.104       .  S
C914        H920   1.089       .  S
C914        C915   1.345       .  D
C916        H921   1.086       .  S
C916        C917   1.369       .  D
O922        C925   1.263       .  A
O922       Cd927   2.323       .  S
C923        O932   1.276       .  A
C923        O928   1.257       .  A
O924        C930   1.274       .  A
O924       Cd927   2.529       .  S
C925        O933   1.267       .  A
C926        O931   1.266       .  A
C926        O929   1.264       .  A
C926        C939   1.471       .  S
Cd927       O934   2.571       .  S
Cd927       O933   2.397       .  S
Cd927       O932   2.567       .  S
Cd927       O928   2.422       .  S
Cd927       O931   2.488       .  S
Cd927       O929   2.481       .  S
C930        O934   1.259       .  A
O935       Cd940   2.526       .  S
C936        O945   1.265   1_545  A
C936        O941   1.272       .  A
C936       C1024   1.561       .  S
O937       Cd940   2.435       .  S
C938        O946   1.260   1_556  A
C938        C953   1.481   1_655  S
C939        O944   1.266       .  A
C939        O942   1.265       .  A
Cd940       O945   2.525       .  S
Cd940       O941   2.557   1_565  S
Cd940       O944   2.491       .  S
Cd940       O942   2.476       .  S
C943        O947   1.260       .  A
C948        C949   1.579       .  S
C948        C954   1.561       .  S
C948        C952   1.570       .  S
C948        C960   1.655       .  S
C949        H956   1.078       .  S
C949        C950   1.396   1_455  D
C950        C951   1.528       .  S
C951        C955   1.520   1_655  S
C951        C953   1.522   1_655  S
C951        H957   1.112       .  S
C952        H958   1.083       .  S
C952        C953   1.354       .  D
C954        H959   1.083       .  S
C954        C955   1.353       .  D
C960       C1000   1.560       .  S
C962        O967   1.264       .  A
C962        C987   1.422   1_554  S
O963        C969   1.264       .  A
O963       Cd966   2.401       .  S
C964        O972   1.271       .  A
C965        O970   1.260       .  A
C965        O968   1.273   1_455  A
C965       C1019   1.472       .  S
Cd966       O973   2.466       .  S
Cd966       O972   2.355   1_455  S
Cd966       O971   2.315       .  S
Cd966       O970   2.423       .  S
Cd966       O968   2.500   1_455  S
C969        O973   1.264       .  A
C974        C975   1.519   1_545  S
C974        C980   1.535       .  S
C974        C978   1.507       .  S
C975        H982   1.086       .  S
C975        C976   1.369       .  D
C976        C977   1.543   1_565  S
C977        C981   1.553       .  S
C977        C979   1.550       .  S
C977        H983   1.105       .  S
C978        H984   1.089       .  S
C978        C979   1.346       .  D
C980        H985   1.085       .  S
C980        C981   1.403       .  D
C981       C1024   1.562       .  S
O986        C989   1.258       .  A
O986       Cd991   2.413       .  S
C987        O996   1.266       .  A
C987        O992   1.261       .  A
O988        C994   1.276       .  A
O988       Cd991   2.530       .  S
C989        O997   1.277       .  A
C990        O995   1.266       .  A
C990        O993   1.265       .  A
C990       C1007   1.479       .  S
Cd991       O998   2.549       .  S
Cd991       O997   2.571       .  S
Cd991       O996   2.408       .  S
Cd991       O992   2.324       .  S
Cd991       O995   2.493       .  S
Cd991       O993   2.505       .  S
C994        O998   1.259       .  A
O999       C1002   1.272       .  A
C1000      O1009   1.265       .  A
C1000      O1005   1.273       .  A
O1001      C1007   1.269       .  A
O1001     Cd1004   2.521       .  S
C1002      O1010   1.259       .  A
C1002      C1014   1.486       .  S
C1003      O1008   1.271   1_545  A
C1003      O1006   1.259       .  A
Cd1004     O1011   2.479       .  S
Cd1004     O1009   2.522   1_545  S
Cd1004     O1005   2.537   1_545  S
C1007      O1011   1.265       .  A
C1012      C1013   1.575   1_655  S
C1012      C1018   1.562       .  S
C1012      C1016   1.579   1_655  S
C1012      C1024   1.654       .  S
C1013      H1020   1.084   1_455  S
C1013      C1014   1.358       .  D
C1014      C1015   1.522       .  S
C1015      C1019   1.519       .  S
C1015      C1017   1.523       .  S
C1015      H1021   1.111       .  S
C1016      H1022   1.082       .  S
C1016      C1017   1.394       .  D
C1018      H1023   1.082       .  S
C1018      C1019   1.355   1_655  D
