geometry optimzed in LAMMPS
_audit_creation_date              2020-11-30 
_audit_creation_method            'lammps2cif' 
_symmetry_space_group_name_H-M    'P1' 
_symmetry_Int_Tables_number       1 
_symmetry_cell_setting            triclinic 
loop_ 
_symmetry_equiv_pos_as_xyz 
  x,y,z 
_cell_length_a                    41.68804096 
_cell_length_b                    41.862589711787805 
_cell_length_c                    48.967370215696846 
_cell_angle_alpha                 89.76847822240487 
_cell_angle_beta                  89.90201716408066 
_cell_angle_gamma                 90.11111485579117 
loop_ 
_atom_site_label 
_atom_site_type_symbol 
_atom_site_fract_x 
_atom_site_fract_y 
_atom_site_fract_z 
_atom_site_charge 
C1          C  0.39006206  0.44439922  0.43281263     0.85100
C2          C  0.39085653  0.43887156  0.46395098    -0.55100
C3          C  0.41911105  0.42686569  0.47328939     0.08000
C4          C  0.44436584  0.42132586  0.45079815     0.19000
C5          C  0.41900467  0.46634904  0.42741586    -0.55800
C6          C  0.44737964  0.45423638  0.43668077     0.08100
C7          C  0.39943575  0.41200277  0.42053864    -0.55400
C8          C  0.42777255  0.39981195  0.42967336     0.08700
H9          H  0.37148069  0.44392941  0.47779919     0.13200
H10         H  0.46749507  0.41180012  0.45855349    -0.01000
H11         H  0.41716562  0.48955899  0.41755439     0.13500
H12         H  0.38446062  0.39953978  0.40586979     0.13300
C13         C  0.03501599  0.48151780  0.43114159     0.85100
C14         C  0.03448955  0.48709804  0.46224643    -0.55100
C15         C  0.00654354  0.99979874  0.47156634     0.08000
C16         C  0.48126124  0.00561956  0.44934011     0.19000
C17         C  0.00566078  0.46004228  0.42623454    -0.55800
C18         C  0.47760602  0.47260500  0.43580775     0.08900
C19         C  0.02614403  0.01406413  0.41866569    -0.55400
C20         C  0.49809344  0.02684317  0.42795026     0.08700
H21         H  0.05350322  0.48100642  0.47623558     0.13200
H22         H  0.45836041  0.01547383  0.45727389    -0.01000
H23         H  0.00708983  0.43659705  0.41689538     0.13500
H24         H  0.04149947  0.02632089  0.40403441     0.13300
C25         C  0.14122139  0.23384163  0.29288348     0.85100
C26         C  0.14201570  0.23741331  0.26149782    -0.55100
C27         C  0.17079389  0.24744863  0.25149377     0.08000
C28         C  0.19642949  0.25301148  0.27338042     0.19000
C29         C  0.16905962  0.21082125  0.29901600    -0.55800
C30         C  0.19786460  0.22093753  0.28877178     0.08100
C31         C  0.15236434  0.26655236  0.30349076    -0.55400
C32         C  0.18105264  0.27653056  0.29335276     0.08700
H33         H  0.12217215  0.23317412  0.24804167     0.13200
H34         H  0.21988785  0.26111697  0.26502070    -0.01000
H35         H  0.16609020  0.18820409  0.30968096     0.13500
H36         H  0.13835254  0.28098770  0.31751866     0.13300
C37         C  0.28385354  0.18963115  0.29305003     0.85100
C38         C  0.28358698  0.18633852  0.26165575    -0.55100
C39         C  0.25523046  0.17556339  0.25152199     0.08000
C40         C  0.22935120  0.16927430  0.27331691     0.19000
C41         C  0.25540544  0.21174144  0.29915503    -0.55800
C42         C  0.22695534  0.20106450  0.28890709     0.08100
C43         C  0.27355177  0.15642077  0.30349178    -0.55400
C44         C  0.24515266  0.14586203  0.29326276     0.08700
H45         H  0.30365626  0.19073501  0.24826673     0.13200
H46         H  0.20619521  0.16070397  0.26481553    -0.01000
H47         H  0.25775047  0.23436550  0.30976708     0.13500
H48         H  0.28792058  0.14210417  0.31739781     0.13300
In49       In  0.46199040  0.21396779  0.37125352     1.36900
C50         C  0.01859617  0.21612688  0.34697543     0.76200
O51         O  0.45686042  0.26656474  0.36608033    -0.62200
O52         O  0.46216757  0.24914169  0.40654514    -0.53100
C53         C  0.40524697  0.21103144  0.34733601     0.68900
O54         O  0.43103929  0.21520672  0.33432166    -0.48000
C55         C  0.46724960  0.15489804  0.39137860     0.73600
O56         O  0.49265338  0.21294681  0.33404447    -0.59900
O57         O  0.46198013  0.17855311  0.40680761    -0.50000
O58         O  0.01549173  0.21865537  0.37254173    -0.56300
C59         C  0.45821249  0.27315553  0.39110400     0.83800
O60         O  0.40852388  0.20798892  0.37285184    -0.58200
O61         O  0.46881354  0.16180988  0.36638019    -0.61500
In62       In  0.21284836  0.46092873  0.35232896     1.36900
C63         C  0.21470898  0.01848353  0.32855437     0.76200
O64         O  0.15910867  0.45856612  0.35180557    -0.62200
O65         O  0.18281912  0.45949987  0.39017998    -0.53100
C66         C  0.21129479  0.40302987  0.32966343     0.68900
O67         O  0.20377067  0.42801278  0.31665206    -0.48000
C68         C  0.26859467  0.46409834  0.37849118     0.73600
O69         O  0.22502350  0.49362139  0.31700151    -0.59900
O70         O  0.24196614  0.46353995  0.39076845    -0.50000
O71         O  0.20225632  0.01353590  0.35163356    -0.56300
C72         C  0.15649931  0.45855103  0.37749428     0.83800
O73         O  0.22057413  0.40800109  0.35373009    -0.58200
O74         O  0.26657914  0.46309717  0.35281555    -0.61500
C75         C  0.44263491  0.39153293  0.04295125     0.85100
C76         C  0.43631666  0.39241217  0.01192198    -0.55100
C77         C  0.42492756  0.42083681  0.00259892     0.08000
C78         C  0.42054446  0.44614733  0.02498423     0.19000
C79         C  0.46557577  0.41976485  0.04760743    -0.55800
C80         C  0.45397253  0.44827888  0.03825926     0.08100
C81         C  0.41071693  0.40177275  0.05586996    -0.55400
C82         C  0.39905895  0.43027294  0.04674145     0.08700
H83         H  0.44048999  0.37303452  0.99803641     0.13200
H84         H  0.41144508  0.46940080  0.01723515    -0.01000
H85         H  0.48914573  0.41731518  0.05679840     0.13500
H86         H  0.39809027  0.38719250  0.07084055     0.13300
C87         C  0.48548520  0.03426133  0.04183015     0.85100
C88         C  0.49006870  0.03379966  0.01055278    -0.55100
C89         C  0.00067461  0.00531972  0.00079366     0.08000
C90         C  0.00598501  0.47970949  0.02283379     0.19000
C91         C  0.46265585  0.00612942  0.04752195    -0.55800
C92         C  0.47345793  0.47765648  0.03765849     0.08100
C93         C  0.01822241  0.02366588  0.05317631    -0.55400
C94         C  0.02888006  0.49528788  0.04328295     0.08700
H95         H  0.48630907  0.05376115  0.99699033     0.13200
H96         H  0.01459388  0.45651337  0.01468212    -0.01000
H97         H  0.43973603  0.00862336  0.05787682     0.13500
H98         H  0.03208065  0.03771034  0.06759046     0.13300
C99         C  0.23319406  0.13939940  0.18230088     0.85100
C100        C  0.23884157  0.14050244  0.21339760    -0.55100
C101        C  0.25063564  0.16894520  0.22229177     0.08000
C102        C  0.25601464  0.19387263  0.19959420     0.19000
C103        C  0.21082981  0.16789591  0.17695932    -0.55800
C104        C  0.22286506  0.19634667  0.18591026     0.08100
C105        C  0.26551303  0.14900907  0.16957216    -0.55400
C106        C  0.27755320  0.17743321  0.17837017     0.08700
H107        H  0.23318733  0.12156857  0.22771985     0.13200
H108        H  0.26542860  0.21706917  0.20711270    -0.01000
H109        H  0.18732677  0.16567097  0.16760797     0.13500
H110        H  0.27803691  0.13413943  0.15487960     0.13300
C111        C  0.19395747  0.28307092  0.18205208     0.85100
C112        C  0.18861744  0.28173437  0.21318061    -0.55100
C113        C  0.17635216  0.25352376  0.22226569     0.08000
C114        C  0.17091522  0.22864046  0.19977810     0.19000
C115        C  0.21614032  0.25448864  0.17662810    -0.55800
C116        C  0.20401649  0.22604805  0.18584486     0.08100
C117        C  0.16152124  0.27359333  0.16952894    -0.55400
C118        C  0.14941560  0.24525347  0.17867246     0.08700
H119        H  0.19495697  0.30034367  0.22738493     0.13200
H120        H  0.16132424  0.20550445  0.20747284    -0.01000
H121        H  0.23960199  0.25663531  0.16710900     0.13500
H122        H  0.14897194  0.28838889  0.15473117     0.13300
In123      In  0.21257551  0.46203802  0.10495339     1.36900
C124        C  0.21319768  0.40557593  0.12950481     0.76200
O125        O  0.15924699  0.45739603  0.10655745    -0.62200
O126        O  0.18035232  0.46720403  0.06800863    -0.53100
C127        C  0.21089649  0.01823236  0.12954032     0.68900
O128        O  0.20954441  0.49210631  0.14233821    -0.48000
C129        C  0.27227025  0.46068924  0.08541581     0.73600
O130        O  0.21235128  0.43160105  0.14237295    -0.59900
O131        O  0.24809740  0.46070525  0.06984921    -0.50000
O132        O  0.21339794  0.40844988  0.10380234    -0.56300
C133        C  0.15483764  0.46326183  0.08161025     0.83800
O134        O  0.21277382  0.01559519  0.10395007    -0.58200
O135        O  0.26562635  0.46227219  0.11045110    -0.61500
In136      In  0.46385403  0.21216806  0.11899480     1.36900
C137        C  0.46413611  0.15567464  0.09502736     0.76200
O138        O  0.01700976  0.21241723  0.11439439    -0.62200
O139        O  0.49832125  0.21353086  0.15473070    -0.53100
C140        C  0.46420909  0.26922199  0.09541719     0.68900
O141        O  0.46644847  0.24351316  0.08223584    -0.48000
C142        C  0.40444743  0.20890383  0.13917035     0.73600
O143        O  0.46121435  0.18152602  0.08194399    -0.59900
O144        O  0.42874457  0.21087775  0.15455538    -0.50000
O145        O  0.46698390  0.15880883  0.12055506    -0.56300
C146        C  0.02294507  0.21401636  0.13955533     0.83800
O147        O  0.46179302  0.26574971  0.12095868    -0.58200
O148        O  0.41084672  0.20961113  0.11404604    -0.61500
C149        C  0.21193686  0.31643959  0.14184641    -0.14700
C150        C  0.20544916  0.31473832  0.17005129     0.07400
C151        C  0.20503030  0.34346909  0.18504706    -0.14700
C152        C  0.20894418  0.37284233  0.17191904    -0.14700
C153        C  0.21316176  0.37437398  0.14354959     0.07400
C154        C  0.21564852  0.34591605  0.12871966    -0.14700
H155        H  0.21226623  0.29491032  0.12965787     0.11400
H156        H  0.19978934  0.34417861  0.20656557     0.11400
H157        H  0.20715390  0.39448445  0.18387826     0.11400
H158        H  0.21925149  0.34645759  0.10681783     0.11400
C159        C  0.11189997  0.23155775  0.14078936    -0.14700
C160        C  0.11821786  0.23271416  0.16888595     0.07400
C161        C  0.09365938  0.22472807  0.18734227    -0.14700
C162        C  0.06273665  0.21760762  0.17794119    -0.14700
C163        C  0.05610547  0.21773503  0.14984538     0.07400
C164        C  0.08125656  0.22383073  0.13134842    -0.14700
H165        H  0.13053757  0.23742601  0.12615004     0.11400
H166        H  0.09783597  0.22552829  0.20900326     0.11400
H167        H  0.04385492  0.21290748  0.19263998     0.11400
H168        H  0.07694694  0.22396927  0.10954891     0.11400
C169        C  0.31651720  0.18703957  0.14031419    -0.14700
C170        C  0.30870473  0.19004550  0.16809424     0.07400
C171        C  0.33187598  0.20228491  0.18605588    -0.14700
C172        C  0.36302327  0.20916177  0.17674567    -0.14700
C173        C  0.37114725  0.20470764  0.14916732     0.07400
C174        C  0.34727709  0.19449334  0.13093196    -0.14700
H175        H  0.29897480  0.17815328  0.12590852     0.11400
H176        H  0.32645244  0.20507430  0.20746640     0.11400
H177        H  0.38088437  0.21730600  0.19117424     0.11400
H178        H  0.35270928  0.19103519  0.10951332     0.11400
C179        C  0.21994650  0.07937079  0.18516859    -0.14700
C180        C  0.22149580  0.10811063  0.17010441     0.07400
C181        C  0.21589160  0.10694403  0.14175925    -0.14700
C182        C  0.21115974  0.07782472  0.12858761    -0.14700
C183        C  0.21156606  0.04923059  0.14354310     0.07400
C184        C  0.21493521  0.05033077  0.17198918    -0.14700
H185        H  0.22413623  0.07840326  0.20684603     0.11400
H186        H  0.21695734  0.12856392  0.12955726     0.11400
H187        H  0.20835852  0.07760574  0.10660443     0.11400
H188        H  0.21520664  0.02853605  0.18398705     0.11400
C189        C  0.08701477  0.48611876  0.03399095    -0.14700
C190        C  0.06032970  0.48217103  0.05117005     0.07400
C191        C  0.06454584  0.46940840  0.07737641    -0.14700
C192        C  0.09523923  0.46167666  0.08669414    -0.14700
C193        C  0.12227890  0.46684851  0.07000941     0.07400
C194        C  0.11781458  0.47840363  0.04330086    -0.14700
H195        H  0.08425849  0.49675572  0.01396232     0.11400
H196        H  0.04419318  0.46655303  0.09096004     0.11400
H197        H  0.09792482  0.45284238  0.10737897     0.11400
H198        H  0.13821632  0.48287465  0.03010050     0.11400
C199        C  0.97327632  0.06712054  0.08351074    -0.14700
C200        C  0.47466065  0.06545535  0.05481071     0.07400
C201        C  0.46836636  0.09345893  0.03964492    -0.14700
C202        C  0.46373153  0.12257559  0.05284028    -0.14700
C203        C  0.46506084  0.12440078  0.08139757     0.07400
C204        C  0.46882997  0.09628657  0.09666639    -0.14700
H205        H  0.97734283  0.04594475  0.09580621     0.11400
H206        H  0.46772231  0.09373841  0.01765790     0.11400
H207        H  0.46015121  0.14388107  0.04060419     0.11400
H208        H  0.96941856  0.09696675  0.11876588     0.11400
C209        C  0.34504793  0.45557310  0.03894312    -0.14700
C210        C  0.36812653  0.44321342  0.05696180     0.07400
C211        C  0.36028831  0.44016153  0.08475646    -0.14700
C212        C  0.32952163  0.44746464  0.09405272    -0.14700
C213        C  0.30568529  0.45743375  0.07568726     0.07400
C214        C  0.31387331  0.46216947  0.04813557    -0.14700
H215        H  0.35050438  0.45861816  0.01757214     0.11400
H216        H  0.37777051  0.43123569  0.09922247     0.11400
H217        H  0.32399012  0.44384026  0.11546007     0.11400
H218        H  0.29601789  0.47022543  0.03363206     0.11400
C219        C  0.45896881  0.35837483  0.08379648    -0.14700
C220        C  0.45399793  0.36003436  0.05535202     0.07400
C221        C  0.45624036  0.33154712  0.04018460    -0.14700
C222        C  0.46089540  0.30230039  0.05327673    -0.14700
C223        C  0.46342167  0.30062974  0.08176540     0.07400
C224        C  0.46339586  0.32898191  0.09690060    -0.14700
H225        H  0.45765261  0.37979533  0.09608307     0.11400
H226        H  0.45315494  0.33086083  0.01839209     0.11400
H227        H  0.46118568  0.28076365  0.04109018     0.11400
H228        H  0.46572813  0.32835693  0.11892027     0.11400
C229        C  0.31642945  0.20093080  0.33518116    -0.14700
C230        C  0.31499142  0.20025398  0.30644508     0.07400
C231        C  0.34322026  0.20690074  0.29156850    -0.14700
C232        C  0.37232499  0.21127345  0.30502239    -0.14700
C233        C  0.37394073  0.20942279  0.33357179     0.07400
C234        C  0.34562331  0.20517679  0.34861230    -0.14700
H235        H  0.29506018  0.19652840  0.34725313     0.11400
H236        H  0.34373258  0.20801073  0.26960782     0.11400
H237        H  0.39378492  0.21523042  0.29296418     0.11400
H238        H  0.34615744  0.20423304  0.37071165     0.11400
C239        C  0.21184915  0.10855834  0.32124501    -0.14700
C240        C  0.23297844  0.11353947  0.29937373     0.07400
C241        C  0.24570018  0.08719397  0.28551422    -0.14700
C242        C  0.23833624  0.05610517  0.29408361    -0.14700
C243        C  0.21844941  0.05095159  0.31688235     0.07400
C244        C  0.20465498  0.07746422  0.32998833    -0.14700
H245        H  0.20209017  0.12871927  0.33227151     0.11400
H246        H  0.26233293  0.09074477  0.26874464     0.11400
H247        H  0.24939825  0.03616837  0.28368006     0.11400
H248        H  0.18924727  0.07419707  0.34761053     0.11400
C249        C  0.18766460  0.33458681  0.28345975    -0.14700
C250        C  0.19423696  0.30816022  0.30021593     0.07400
C251        C  0.20896081  0.31284572  0.32555626    -0.14700
C252        C  0.21595663  0.34373813  0.33454593    -0.14700
C253        C  0.20811939  0.37044428  0.31836512     0.07400
C254        C  0.19468731  0.36554074  0.29241074    -0.14700
H255        H  0.17548139  0.33142086  0.26416161     0.11400
H256        H  0.21373550  0.29267527  0.33886178     0.11400
H257        H  0.22627931  0.34677571  0.35464676     0.11400
H258        H  0.18825430  0.38565965  0.27958537     0.11400
C259        C  0.08085346  0.22019659  0.29112962    -0.14700
C260        C  0.10945468  0.22431805  0.30608549     0.07400
C261        C  0.10782443  0.22267641  0.33479917    -0.14700
C262        C  0.07839610  0.21936360  0.34817928    -0.14700
C263        C  0.04993740  0.21713845  0.33312127     0.07400
C264        C  0.05151386  0.21669283  0.30454179    -0.14700
H265        H  0.08022167  0.22054184  0.26917377     0.11400
H266        H  0.12933669  0.22550232  0.34693643     0.11400
H267        H  0.07785211  0.21934235  0.37029167     0.11400
H268        H  0.02988697  0.21453745  0.29244868     0.11400
C269        C  0.48470725  0.09910833  0.38267540    -0.14700
C270        C  0.47235634  0.12169184  0.40102747     0.07400
C271        C  0.46596147  0.11215297  0.42804063    -0.14700
C272        C  0.47261042  0.08074358  0.43657758    -0.14700
C273        C  0.48657946  0.05872049  0.41847845     0.07400
C274        C  0.49181589  0.06814951  0.39128560    -0.14700
H275        H  0.48970256  0.10558457  0.36165735     0.11400
H276        H  0.45614332  0.12897966  0.44254852     0.11400
H277        H  0.46781786  0.07413656  0.45750383     0.11400
H278        H  0.00185910  0.05163381  0.37662612     0.11400
C279        C  0.09476857  0.46568274  0.43352698    -0.14700
C280        C  0.06608100  0.46910148  0.41854537     0.07400
C281        C  0.06729976  0.46460818  0.39005710    -0.14700
C282        C  0.09653057  0.45968853  0.37672171    -0.14700
C283        C  0.12521707  0.45882804  0.39162085     0.07400
C284        C  0.12391851  0.46065029  0.42016772    -0.14700
H285        H  0.09571329  0.46836991  0.45534863     0.11400
H286        H  0.04572436  0.46684674  0.37790423     0.11400
H287        H  0.09681099  0.45798713  0.35466191     0.11400
H288        H  0.14569000  0.45962381  0.43217990     0.11400
C289        C  0.45887036  0.31439597  0.42851417    -0.14700
C290        C  0.45429253  0.30635553  0.40096738     0.07400
C291        C  0.44435782  0.33026551  0.38262555    -0.14700
C292        C  0.43718658  0.36093284  0.39187708    -0.14700
C293        C  0.44017943  0.36865331  0.41963835     0.07400
C294        C  0.45225950  0.34544378  0.43768412    -0.14700
H295        H  0.46688095  0.29654974  0.44303204     0.11400
H296        H  0.44094811  0.32497310  0.36119479     0.11400
H297        H  0.42853566  0.37849831  0.37736411     0.11400
H298        H  0.45527697  0.35076080  0.45903846     0.11400
C299        C  0.32981249  0.45848147  0.43507099    -0.14700
C300        C  0.35876453  0.45619465  0.42022245     0.07400
C301        C  0.35771356  0.46101462  0.39175009    -0.14700
C302        C  0.32850593  0.46504840  0.37826531    -0.14700
C303        C  0.29961527  0.46466444  0.39296644     0.07400
C304        C  0.30062219  0.46262441  0.42153423    -0.14700
H305        H  0.32877596  0.45546467  0.45689074     0.11400
H306        H  0.37947921  0.45965354  0.37969793     0.11400
H307        H  0.32846272  0.46705066  0.35620915     0.11400
H308        H  0.27866568  0.46273550  0.43339239     0.11400
C309        C  0.39007012  0.44436371  0.93278654     0.85100
C310        C  0.39085581  0.43885743  0.96392781    -0.55100
C311        C  0.41910519  0.42685592  0.97327777     0.08000
C312        C  0.44436701  0.42129962  0.95079563     0.19000
C313        C  0.41901510  0.46630874  0.92738552    -0.55800
C314        C  0.44738669  0.45420060  0.93666351     0.08100
C315        C  0.39944630  0.41195972  0.92052908    -0.55400
C316        C  0.42777913  0.39977388  0.92967724     0.08700
H317        H  0.37147896  0.44392627  0.97777177     0.13200
H318        H  0.46749293  0.41177672  0.95856089    -0.01000
H319        H  0.41717934  0.48951454  0.91751642     0.13500
H320        H  0.38447768  0.39948888  0.90586017     0.13300
C321        C  0.03501678  0.48151087  0.93115533     0.85100
C322        C  0.03447540  0.48708973  0.96225993    -0.55100
C323        C  0.00652193  0.99977350  0.97157403     0.08000
C324        C  0.48124223  0.00558634  0.94933963     0.19000
C325        C  0.00567325  0.46002000  0.92624027    -0.55800
C326        C  0.47760901  0.47257501  0.93580405     0.08900
C327        C  0.02613594  0.01405510  0.91868104    -0.55400
C328        C  0.49807253  0.02681746  0.92795677     0.08700
H329        H  0.05348490  0.48100198  0.97625554     0.13200
H330        H  0.45833430  0.01543052  0.95726814    -0.01000
H331        H  0.00711644  0.43657598  0.91690066     0.13500
H332        H  0.04148854  0.02632175  0.90405333     0.13300
C333        C  0.14122485  0.23377896  0.79292080     0.85100
C334        C  0.14201801  0.23734174  0.76153412    -0.55100
C335        C  0.17079501  0.24737921  0.75152829     0.08000
C336        C  0.19643001  0.25295078  0.77341438     0.19000
C337        C  0.16906615  0.21076549  0.79906029    -0.55800
C338        C  0.19786938  0.22088310  0.78881429     0.08100
C339        C  0.15236225  0.26649547  0.80351977    -0.55400
C340        C  0.18105021  0.27647291  0.79338155     0.08700
H341        H  0.12217216  0.23310382  0.74807977     0.13200
H342        H  0.21988753  0.26105725  0.76505349    -0.01000
H343        H  0.16610036  0.18815238  0.80973228     0.13500
H344        H  0.13834841  0.28093414  0.81754379     0.13300
C345        C  0.28386570  0.18960469  0.79310108     0.85100
C346        C  0.28360125  0.18631969  0.76170737    -0.55100
C347        C  0.25525067  0.17553684  0.75157118     0.08000
C348        C  0.22937259  0.16923237  0.77336312     0.19000
C349        C  0.25540918  0.21170290  0.79920947    -0.55800
C350        C  0.22696390  0.20101737  0.78895821     0.08100
C351        C  0.27357617  0.15638776  0.80353791    -0.55400
C352        C  0.24518091  0.14582163  0.79330589     0.08700
H353        H  0.30366776  0.19072639  0.74831952     0.13200
H354        H  0.20622029  0.16065566  0.76485896    -0.01000
H355        H  0.25774567  0.23432690  0.80982286     0.13500
H356        H  0.28794849  0.14207434  0.81744380     0.13300
In357      In  0.46199523  0.21393207  0.87128735     1.36900
C358        C  0.01860317  0.21607042  0.84701282     0.76200
O359        O  0.45688201  0.26652500  0.86611398    -0.62200
O360        O  0.46217138  0.24909898  0.90658087    -0.53100
C361        C  0.40525425  0.21101938  0.84737478     0.68900
O362        O  0.43104671  0.21518093  0.83435740    -0.48000
C363        C  0.46722302  0.15486439  0.89140597     0.73600
O364        O  0.49265910  0.21290089  0.83407965    -0.59900
O365        O  0.46198476  0.17852139  0.90684020    -0.50000
O366        O  0.01549749  0.21859639  0.87257918    -0.56300
C367        C  0.45822566  0.27311322  0.89113846     0.83800
O368        O  0.40853043  0.20798028  0.87289084    -0.58200
O369        O  0.46876921  0.16177444  0.86640660    -0.61500
In370      In  0.21284420  0.46088254  0.85232711     1.36900
C371        C  0.21470562  0.01843615  0.82856110     0.76200
O372        O  0.15910611  0.45853213  0.85182353    -0.62200
O373        O  0.18283298  0.45947093  0.89019079    -0.53100
C374        C  0.21128488  0.40297934  0.82967203     0.68900
O375        O  0.20373608  0.42795686  0.81666333    -0.48000
C376        C  0.26860120  0.46405123  0.87846567     0.73600
O377        O  0.22501007  0.49357683  0.81699859    -0.59900
O378        O  0.24197864  0.46347871  0.89075225    -0.50000
O379        O  0.20226451  0.01348591  0.85164421    -0.56300
C380        C  0.15650748  0.45852934  0.87751305     0.83800
O381        O  0.22058888  0.40795823  0.85373042    -0.58200
O382        O  0.26657529  0.46306609  0.85279011    -0.61500
C383        C  0.44270189  0.39154723  0.54295378     0.85100
C384        C  0.43636219  0.39242206  0.51192609    -0.55100
C385        C  0.42495216  0.42084214  0.50260813     0.08000
C386        C  0.42057660  0.44615148  0.52499503     0.19000
C387        C  0.46563536  0.41978785  0.54759620    -0.55800
C388        C  0.45401562  0.44829649  0.53825150     0.08100
C389        C  0.41078837  0.40177574  0.55588728    -0.55400
C390        C  0.39910961  0.43026927  0.54676209     0.08700
H391        H  0.44054158  0.37304704  0.49803784     0.13200
H392        H  0.41146340  0.46940107  0.51724948    -0.01000
H393        H  0.48921154  0.41734810  0.55677743     0.13500
H394        H  0.39817617  0.38718729  0.57086083     0.13300
C395        C  0.48548002  0.03429663  0.54181573     0.85100
C396        C  0.49008842  0.03383061  0.51054167    -0.55100
C397        C  0.00071283  0.00535656  0.50078877     0.08000
C398        C  0.00602857  0.47975304  0.52284238     0.19000
C399        C  0.46266081  0.00615470  0.54749753    -0.55800
C400        C  0.47348749  0.47768450  0.53764760     0.08100
C401        C  0.01821254  0.02372574  0.55318132    -0.55400
C402        C  0.02889743  0.49534869  0.54330729     0.08700
H403        H  0.48631212  0.05378292  0.49697269     0.13200
H404        H  0.01465628  0.45655909  0.51470090    -0.01000
H405        H  0.43973159  0.00863927  0.55783915     0.13500
H406        H  0.03204481  0.03777977  0.56760660     0.13300
C407        C  0.23325026  0.13936477  0.68234913     0.85100
C408        C  0.23888694  0.14047186  0.71344623    -0.55100
C409        C  0.25066557  0.16891938  0.72234126     0.08000
C410        C  0.25604291  0.19384805  0.69964451     0.19000
C411        C  0.21087511  0.16785137  0.67700147    -0.55800
C412        C  0.22289636  0.19630779  0.68595323     0.08100
C413        C  0.26556856  0.14898759  0.66962536    -0.55400
C414        C  0.27759344  0.17741600  0.67842568     0.08700
H415        H  0.23323572  0.12153739  0.72776842     0.13200
H416        H  0.26544748  0.21704805  0.70716396    -0.01000
H417        H  0.18737527  0.16561582  0.66764607     0.13500
H418        H  0.27810256  0.13412714  0.65493202     0.13300
C419        C  0.19395162  0.28301895  0.68209027     0.85100
C420        C  0.18860277  0.28167881  0.71321774    -0.55100
C421        C  0.17634915  0.25346156  0.72230022     0.08000
C422        C  0.17092884  0.22857732  0.69981065     0.19000
C423        C  0.21614864  0.25444660  0.67667048    -0.55800
C424        C  0.20403489  0.22600045  0.68588408     0.08100
C425        C  0.16152306  0.27352700  0.66956035    -0.55400
C426        C  0.14942806  0.24518136  0.67870071     0.08700
H427        H  0.19493038  0.30029017  0.72742341     0.13200
H428        H  0.16134584  0.20543683  0.70750293    -0.01000
H429        H  0.23961217  0.25660394  0.66715627     0.13500
H430        H  0.14897036  0.28831739  0.65476082     0.13300
In431      In  0.21261025  0.46200146  0.60500152     1.36900
C432        C  0.21319821  0.40553325  0.62955053     0.76200
O433        O  0.15927102  0.45748841  0.60665013    -0.62200
O434        O  0.18035955  0.46713827  0.56806675    -0.53100
C435        C  0.21098985  0.01818794  0.62959495     0.68900
O436        O  0.20966843  0.49206276  0.64239418    -0.48000
C437        C  0.27229925  0.46064104  0.58544134     0.73600
O438        O  0.21237400  0.43155754  0.64241972    -0.59900
O439        O  0.24812050  0.46067239  0.56988100    -0.50000
O440        O  0.21338908  0.40841050  0.60384846    -0.56300
C441        C  0.15484857  0.46329299  0.58169412     0.83800
O442        O  0.21281860  0.01555337  0.60400170    -0.58200
O443        O  0.26566308  0.46221514  0.61047823    -0.61500
In444      In  0.46386751  0.21217977  0.61900291     1.36900
C445        C  0.46410485  0.15569872  0.59501019     0.76200
O446        O  0.01702839  0.21233132  0.61441044    -0.62200
O447        O  0.49833023  0.21357359  0.65474048    -0.53100
C448        C  0.46426644  0.26924233  0.59543185     0.68900
O449        O  0.46647881  0.24353191  0.58224997    -0.48000
C450        C  0.40446914  0.20891224  0.63920239     0.73600
O451        O  0.46119386  0.18155792  0.58193649    -0.59900
O452        O  0.42878128  0.21080391  0.65457724    -0.50000
O453        O  0.46696384  0.15882004  0.62053771    -0.56300
C454        C  0.02295970  0.21397990  0.63956973     0.83800
O455        O  0.46185520  0.26576955  0.62097384    -0.58200
O456        O  0.41084829  0.20970993  0.61407599    -0.61500
C457        C  0.21191808  0.31639548  0.64188550    -0.14700
C458        C  0.20543553  0.31469073  0.67009105     0.07400
C459        C  0.20502545  0.34341949  0.68509005    -0.14700
C460        C  0.20894069  0.37279451  0.67196395    -0.14700
C461        C  0.21315243  0.37432948  0.64359361     0.07400
C462        C  0.21563131  0.34587299  0.62876102    -0.14700
H463        H  0.21224400  0.29486766  0.62969497     0.11400
H464        H  0.19979413  0.34412592  0.70661053     0.11400
H465        H  0.20715869  0.39443554  0.68392564     0.11400
H466        H  0.21923181  0.34641661  0.60685897     0.11400
C467        C  0.11192904  0.23145130  0.64081397    -0.14700
C468        C  0.11823560  0.23263257  0.66891177     0.07400
C469        C  0.09366658  0.22467493  0.68736629    -0.14700
C470        C  0.06274347  0.21756424  0.67796107    -0.14700
C471        C  0.05612178  0.21767346  0.64986350     0.07400
C472        C  0.08128427  0.22373320  0.63136927    -0.14700
H473        H  0.13057536  0.23729876  0.62617662     0.11400
H474        H  0.09783484  0.22549647  0.70902798     0.11400
H475        H  0.04385322  0.21288991  0.69265787     0.11400
H476        H  0.07698175  0.22385654  0.60956861     0.11400
C477        C  0.31651877  0.18711498  0.64035972    -0.14700
C478        C  0.30873941  0.19004059  0.66815264     0.07400
C479        C  0.33194144  0.20219680  0.68612554    -0.14700
C480        C  0.36308457  0.20907541  0.67680787    -0.14700
C481        C  0.37117438  0.20470908  0.64921179     0.07400
C482        C  0.34727553  0.19457453  0.63097030    -0.14700
H483        H  0.29895256  0.17828429  0.62594969     0.11400
H484        H  0.32654442  0.20491670  0.70754711     0.11400
H485        H  0.38096882  0.21715319  0.69124298     0.11400
H486        H  0.35268279  0.19118124  0.60953928     0.11400
C487        C  0.22002918  0.07933118  0.68522129    -0.14700
C488        C  0.22156978  0.10807010  0.67015469     0.07400
C489        C  0.21597466  0.10689891  0.64180900    -0.14700
C490        C  0.21125603  0.07777747  0.62863928    -0.14700
C491        C  0.21166815  0.04918533  0.64359688     0.07400
C492        C  0.21503308  0.05028812  0.67204324    -0.14700
H493        H  0.22421283  0.07836691  0.70689976     0.11400
H494        H  0.21703515  0.12851794  0.62960556     0.11400
H495        H  0.20845744  0.07755612  0.60665593     0.11400
H496        H  0.21530674  0.02849465  0.68404273     0.11400
C497        C  0.08701770  0.48602266  0.53402484    -0.14700
C498        C  0.06034049  0.48224111  0.55124056     0.07400
C499        C  0.06456301  0.46965060  0.57750750    -0.14700
C500        C  0.09525022  0.46191234  0.58683798    -0.14700
C501        C  0.12228326  0.46691095  0.57010749     0.07400
C502        C  0.11781317  0.47830733  0.54335009    -0.14700
H503        H  0.08426427  0.49653210  0.51394962     0.11400
H504        H  0.04422008  0.46692516  0.59112051     0.11400
H505        H  0.09793818  0.45320504  0.60756118     0.11400
H506        H  0.13820970  0.48264562  0.53011202     0.11400
C507        C  0.97320107  0.06714561  0.58348325    -0.14700
C508        C  0.47462781  0.06548668  0.55478636     0.07400
C509        C  0.46835672  0.09349439  0.53961823    -0.14700
C510        C  0.46371300  0.12261027  0.55281415    -0.14700
C511        C  0.46501251  0.12442880  0.58137295     0.07400
C512        C  0.46874874  0.09630934  0.59664047    -0.14700
H513        H  0.97724986  0.04596663  0.59577906     0.11400
H514        H  0.46774679  0.09377903  0.51763053     0.11400
H515        H  0.46015784  0.14392065  0.54057866     0.11400
H516        H  0.96931238  0.09698336  0.61873973     0.11400
C517        C  0.34508996  0.45556643  0.53897118    -0.14700
C518        C  0.36816541  0.44318679  0.55698422     0.07400
C519        C  0.36031501  0.44009715  0.58477354    -0.14700
C520        C  0.32954450  0.44738607  0.59406848    -0.14700
C521        C  0.30571344  0.45738026  0.57570795     0.07400
C522        C  0.31391005  0.46214831  0.54816183    -0.14700
H523        H  0.35055455  0.45864411  0.51760511     0.11400
H524        H  0.37779234  0.43115740  0.59923752     0.11400
H525        H  0.32400732  0.44373613  0.61547162     0.11400
H526        H  0.29605963  0.47022463  0.53366220     0.11400
C527        C  0.45908181  0.35840048  0.58379615    -0.14700
C528        C  0.45408191  0.36005327  0.55535439     0.07400
C529        C  0.45629825  0.33156040  0.54019284    -0.14700
C530        C  0.46095003  0.30231552  0.55328912    -0.14700
C531        C  0.46349812  0.30065064  0.58177684     0.07400
C532        C  0.46350535  0.32900837  0.59690516    -0.14700
H533        H  0.45778584  0.37982558  0.59607855     0.11400
H534        H  0.45318708  0.33086861  0.51840330     0.11400
H535        H  0.46121509  0.28077509  0.54110688     0.11400
H536        H  0.46585637  0.32838851  0.61892336     0.11400
C537        C  0.31643993  0.20091486  0.83522869    -0.14700
C538        C  0.31500017  0.20023808  0.80649325     0.07400
C539        C  0.34322535  0.20689505  0.79161414    -0.14700
C540        C  0.37233001  0.21127239  0.80506531    -0.14700
C541        C  0.37394800  0.20941811  0.83361392     0.07400
C542        C  0.34563354  0.20516779  0.84865716    -0.14700
H543        H  0.29507311  0.19650573  0.84730208     0.11400
H544        H  0.34373692  0.20800830  0.76965392     0.11400
H545        H  0.39378797  0.21523380  0.79300569     0.11400
H546        H  0.34617054  0.20422195  0.87075634     0.11400
C547        C  0.21188810  0.10851448  0.82129279    -0.14700
C548        C  0.23300807  0.11349849  0.79941564     0.07400
C549        C  0.24570780  0.08715558  0.78553799    -0.14700
C550        C  0.23833070  0.05606498  0.79409476    -0.14700
C551        C  0.21845312  0.05090753  0.81689868     0.07400
C552        C  0.20468084  0.07741890  0.83002314    -0.14700
H553        H  0.20214431  0.12867334  0.83233171     0.11400
H554        H  0.26233206  0.09070863  0.76876267     0.11400
H555        H  0.24937585  0.03612885  0.78367730     0.11400
H556        H  0.18928076  0.07414878  0.84764990     0.11400
C557        C  0.18765596  0.33452598  0.78348174    -0.14700
C558        C  0.19423245  0.30810345  0.80024082     0.07400
C559        C  0.20895713  0.31279427  0.82558009    -0.14700
C560        C  0.21595110  0.34368893  0.83456503    -0.14700
C561        C  0.20811064  0.37039108  0.81838029     0.07400
C562        C  0.19467708  0.36548153  0.79242764    -0.14700
H563        H  0.17546942  0.33135607  0.76418586     0.11400
H564        H  0.21373371  0.29262652  0.83888822     0.11400
H565        H  0.22627426  0.34673147  0.85466516     0.11400
H566        H  0.18824164  0.38559735  0.77959954     0.11400
C567        C  0.08086751  0.22008801  0.79117040    -0.14700
C568        C  0.10946167  0.22425388  0.80612650     0.07400
C569        C  0.10782727  0.22265202  0.83484145    -0.14700
C570        C  0.07839896  0.21934232  0.84822069    -0.14700
C571        C  0.04994513  0.21707695  0.83316104     0.07400
C572        C  0.05152719  0.21658734  0.80458221    -0.14700
H573        H  0.08024298  0.22039099  0.76921407     0.11400
H574        H  0.12933530  0.22550907  0.84697883     0.11400
H575        H  0.07785074  0.21935611  0.87033295     0.11400
H576        H  0.02990432  0.21439710  0.79248861     0.11400
C577        C  0.48465749  0.09907500  0.88269013    -0.14700
C578        C  0.47232074  0.12165773  0.90104942     0.07400
C579        C  0.46593851  0.11211938  0.92806443    -0.14700
C580        C  0.47258896  0.08070967  0.93659642    -0.14700
C581        C  0.48654818  0.05868917  0.91849007     0.07400
C582        C  0.49176958  0.06811672  0.89129580    -0.14700
H583        H  0.48964298  0.10555240  0.86167075     0.11400
H584        H  0.45613134  0.12894659  0.94257716     0.11400
H585        H  0.46780801  0.07410091  0.95752408     0.11400
H586        H  0.00179845  0.05159382  0.87663467     0.11400
C587        C  0.09478686  0.46574345  0.93354893    -0.14700
C588        C  0.06609268  0.46911205  0.91856753     0.07400
C589        C  0.06731049  0.46458529  0.89008376    -0.14700
C590        C  0.09654060  0.45965834  0.87675053    -0.14700
C591        C  0.12522997  0.45882842  0.89164665     0.07400
C592        C  0.12393732  0.46070321  0.92019125    -0.14700
H593        H  0.09573466  0.46847725  0.95536563     0.11400
H594        H  0.04573198  0.46679498  0.87793089     0.11400
H595        H  0.09681710  0.45792215  0.85469300     0.11400
H596        H  0.14571227  0.45971072  0.93220077     0.11400
C597        C  0.45884221  0.31434689  0.92855254    -0.14700
C598        C  0.45430572  0.30631197  0.90099995     0.07400
C599        C  0.44440938  0.33022671  0.88264765    -0.14700
C600        C  0.43723627  0.36089561  0.89189210    -0.14700
C601        C  0.44018999  0.36861228  0.91965652     0.07400
C602        C  0.45223046  0.34539659  0.93771574    -0.14700
H603        H  0.46682055  0.29649571  0.94307912     0.11400
H604        H  0.44103104  0.32493753  0.86121275     0.11400
H605        H  0.42861354  0.37846569  0.87737080     0.11400
H606        H  0.45521640  0.35071048  0.95907307     0.11400
C607        C  0.32982145  0.45843644  0.93503671    -0.14700
C608        C  0.35877416  0.45615098  0.92018939     0.07400
C609        C  0.35772352  0.46096278  0.89171578    -0.14700
C610        C  0.32851497  0.46499490  0.87823065    -0.14700
C611        C  0.29962514  0.46461471  0.89293354     0.07400
C612        C  0.30063262  0.46257619  0.92150051    -0.14700
H613        H  0.32878102  0.45542117  0.95685608     0.11400
H614        H  0.37948946  0.45959948  0.87966429     0.11400
H615        H  0.32847010  0.46699364  0.85617426     0.11400
H616        H  0.27867681  0.46268776  0.93335965     0.11400
C617        C  0.39005905  0.94440430  0.43281061     0.85100
C618        C  0.39085344  0.93887534  0.46394856    -0.55100
C619        C  0.41910672  0.92686717  0.47328677     0.08000
C620        C  0.44436149  0.92132733  0.45079562     0.19000
C621        C  0.41900276  0.96635309  0.42741488    -0.55800
C622        C  0.44737709  0.95423842  0.43667939     0.08100
C623        C  0.39943128  0.91200832  0.42053505    -0.55400
C624        C  0.42776740  0.89981534  0.42966987     0.08700
H625        H  0.37147917  0.94393651  0.47779701     0.13200
H626        H  0.46749016  0.91180021  0.45855092    -0.01000
H627        H  0.41716503  0.98956374  0.41755429     0.13500
H628        H  0.38445529  0.89954718  0.40586580     0.13300
C629        C  0.03501466  0.98151439  0.43113472     0.85100
C630        C  0.03448650  0.98709778  0.46223895    -0.55100
C631        C  0.00654585  0.49979550  0.47157584     0.08000
C632        C  0.48126050  0.50561967  0.44934132     0.19000
C633        C  0.00565832  0.96004035  0.42622815    -0.55800
C634        C  0.47760461  0.97260511  0.43580666     0.08900
C635        C  0.02614216  0.51406839  0.41867556    -0.55400
C636        C  0.49809196  0.52684432  0.42795181     0.08700
H637        H  0.05349771  0.98100347  0.47622948     0.13200
H638        H  0.45835908  0.51547265  0.45727492    -0.01000
H639        H  0.00708634  0.93659383  0.41689146     0.13500
H640        H  0.04149479  0.52632757  0.40404359     0.13300
C641        C  0.14121960  0.73384155  0.29288389     0.85100
C642        C  0.14201433  0.73741766  0.26149834    -0.55100
C643        C  0.17079309  0.74745321  0.25149516     0.08000
C644        C  0.19642848  0.75301256  0.27338304     0.19000
C645        C  0.16905711  0.71081921  0.29901390    -0.55800
C646        C  0.19786265  0.72093588  0.28877091     0.08100
C647        C  0.15236371  0.76655013  0.30349506    -0.55400
C648        C  0.18105223  0.77652940  0.29335831     0.08700
H649        H  0.12217100  0.73317874  0.24804138     0.13200
H650        H  0.21988720  0.76111856  0.26502433    -0.01000
H651        H  0.16608687  0.68820078  0.30967664     0.13500
H652        H  0.13835206  0.78098367  0.31752441     0.13300
C653        C  0.28385169  0.68962762  0.29304881     0.85100
C654        C  0.28358534  0.68633596  0.26165457    -0.55100
C655        C  0.25522896  0.67556111  0.25152048     0.08000
C656        C  0.22934926  0.66927160  0.27331515     0.19000
C657        C  0.25540366  0.71173804  0.29915417    -0.55800
C658        C  0.22695338  0.70106192  0.28890568     0.08100
C659        C  0.27354972  0.65641711  0.30348980    -0.55400
C660        C  0.24515069  0.64585857  0.29326079     0.08700
H661        H  0.30365479  0.69073268  0.24826573     0.13200
H662        H  0.20619334  0.66070150  0.26481347    -0.01000
H663        H  0.25774892  0.73436161  0.30976680     0.13500
H664        H  0.28791845  0.64210017  0.31739572     0.13300
In665      In  0.46198794  0.71396821  0.37125490     1.36900
C666        C  0.01859403  0.71612361  0.34697680     0.76200
O667        O  0.45684855  0.76656397  0.36608112    -0.62200
O668        O  0.46216672  0.74914388  0.40654567    -0.53100
C669        C  0.40524541  0.71102445  0.34733627     0.68900
O670        O  0.43103798  0.71519893  0.33432216    -0.48000
C671        C  0.46724951  0.65489944  0.39138107     0.73600
O672        O  0.49264931  0.71295478  0.33404487    -0.59900
O673        O  0.46197812  0.67855440  0.40680972    -0.50000
O674        O  0.01548965  0.71865094  0.37254323    -0.56300
C675        C  0.45820543  0.77315640  0.39110425     0.83800
O676        O  0.40852161  0.70798579  0.37285255    -0.58200
O677        O  0.46881504  0.66181109  0.36638272    -0.61500
In678      In  0.21284817  0.96093341  0.35232685     1.36900
C679        C  0.21471433  0.51848037  0.32855959     0.76200
O680        O  0.15910913  0.95855495  0.35180429    -0.62200
O681        O  0.18281968  0.95951157  0.39017825    -0.53100
C682        C  0.21129932  0.90303164  0.32966584     0.68900
O683        O  0.20377127  0.92801256  0.31665324    -0.48000
C684        C  0.26859259  0.96411075  0.37849079     0.73600
O685        O  0.22502409  0.99362537  0.31699889    -0.59900
O686        O  0.24196361  0.96354769  0.39076724    -0.50000
O687        O  0.20226692  0.51353336  0.35164096    -0.56300
C688        C  0.15650004  0.95854921  0.37749300     0.83800
O689        O  0.22058283  0.90800659  0.35373080    -0.58200
O690        O  0.26657844  0.96311149  0.35281502    -0.61500
C691        C  0.44262827  0.89153443  0.04295097     0.85100
C692        C  0.43630794  0.89241264  0.01192193    -0.55100
C693        C  0.42492126  0.92083804  0.00259839     0.08000
C694        C  0.42054120  0.94614982  0.02498296     0.19000
C695        C  0.46557164  0.91976488  0.04760520    -0.55800
C696        C  0.45397017  0.94827936  0.03825657     0.08100
C697        C  0.41071169  0.90177750  0.05587059    -0.55400
C698        C  0.39905537  0.93027814  0.04674141     0.08700
H699        H  0.44047746  0.87303358  0.99803680     0.13200
H700        H  0.41144316  0.96940364  0.01723345    -0.01000
H701        H  0.48914169  0.91731396  0.05679590     0.13500
H702        H  0.39808452  0.88719894  0.07084220     0.13300
C703        C  0.48548897  0.53426091  0.04183216     0.85100
C704        C  0.49007342  0.53379867  0.01055510    -0.55100
C705        C  0.00067235  0.50531737  0.00079976     0.08000
C706        C  0.00598717  0.97971195  0.02282774     0.19000
C707        C  0.46265799  0.50612990  0.04752358    -0.55800
C708        C  0.47345629  0.97765659  0.03765633     0.08100
C709        C  0.01821670  0.52366365  0.05318329    -0.55400
C710        C  0.02888393  0.99528969  0.04327582     0.08700
H711        H  0.48631447  0.55375943  0.99699188     0.13200
H712        H  0.01459455  0.95651521  0.01467613    -0.01000
H713        H  0.43973801  0.50862471  0.05787810     0.13500
H714        H  0.03207382  0.53770895  0.06759756     0.13300
C715        C  0.23319224  0.63939826  0.18229930     0.85100
C716        C  0.23883973  0.64050092  0.21339599    -0.55100
C717        C  0.25063529  0.66894293  0.22229020     0.08000
C718        C  0.25601557  0.69387014  0.19959274     0.19000
C719        C  0.21082887  0.66789581  0.17695831    -0.55800
C720        C  0.22286560  0.69634593  0.18590968     0.08100
C721        C  0.26551109  0.64900655  0.16957014    -0.55400
C722        C  0.27755293  0.67742976  0.17836817     0.08700
H723        H  0.23318247  0.62156807  0.22771831     0.13200
H724        H  0.26543089  0.71706608  0.20711135    -0.01000
H725        H  0.18732539  0.66567198  0.16760756     0.13500
H726        H  0.27803403  0.63413617  0.15487749     0.13300
C727        C  0.19396275  0.78307159  0.18205204     0.85100
C728        C  0.18862081  0.78173649  0.21318068    -0.55100
C729        C  0.17635404  0.75352660  0.22226645     0.08000
C730        C  0.17091713  0.72864267  0.19977885     0.19000
C731        C  0.21614386  0.75448813  0.17662892    -0.55800
C732        C  0.20401862  0.72604840  0.18584596     0.08100
C733        C  0.16152603  0.77359527  0.16952878    -0.55400
C734        C  0.14941905  0.74525588  0.17867198     0.08700
H735        H  0.19495722  0.80034666  0.22738470     0.13200
H736        H  0.16132494  0.70550715  0.20747366    -0.01000
H737        H  0.23960534  0.75663335  0.16710912     0.13500
H738        H  0.14897781  0.78839083  0.15473037     0.13300
In739      In  0.21257347  0.96203973  0.10495457     1.36900
C740        C  0.21320117  0.90557535  0.12950303     0.76200
O741        O  0.15924533  0.95740068  0.10655744    -0.62200
O742        O  0.18035263  0.96720082  0.06800787    -0.53100
C743        C  0.21090229  0.51823081  0.12953832     0.68900
O744        O  0.20953351  0.99210780  0.14233988    -0.48000
C745        C  0.27226789  0.96069593  0.08541678     0.73600
O746        O  0.21235701  0.93159956  0.14237260    -0.59900
O747        O  0.24809498  0.96071228  0.06985026    -0.50000
O748        O  0.21339552  0.90845138  0.10380073    -0.56300
C749        C  0.15483733  0.96326215  0.08160932     0.83800
O750        O  0.21277337  0.51559377  0.10394774    -0.58200
O751        O  0.26562409  0.96227639  0.11045224    -0.61500
In752      In  0.46385480  0.71216801  0.11899340     1.36900
C753        C  0.46414070  0.65567585  0.09502603     0.76200
O754        O  0.01701492  0.71241696  0.11438720    -0.62200
O755        O  0.49832078  0.71353789  0.15472932    -0.53100
C756        C  0.46420862  0.76922300  0.09541650     0.68900
O757        O  0.46644569  0.74351433  0.08223468    -0.48000
C758        C  0.40444882  0.70889636  0.13916875     0.73600
O759        O  0.46122064  0.68152723  0.08194224    -0.59900
O760        O  0.42874598  0.71086922  0.15455379    -0.50000
O761        O  0.46698443  0.65880958  0.12055408    -0.56300
C762        C  0.02295015  0.71402106  0.13954799     0.83800
O763        O  0.46179605  0.76575009  0.12095814    -0.58200
O764        O  0.41084760  0.70960841  0.11404443    -0.61500
C765        C  0.21192711  0.81643832  0.14184056    -0.14700
C766        C  0.20545771  0.81473683  0.17004858     0.07400
C767        C  0.20506427  0.84346600  0.18504693    -0.14700
C768        C  0.20897610  0.87283923  0.17191826    -0.14700
C769        C  0.21316952  0.87437220  0.14354622     0.07400
C770        C  0.21563731  0.84591471  0.12871339    -0.14700
H771        H  0.21224092  0.79490985  0.12965067     0.11400
H772        H  0.19984633  0.84417530  0.20656942     0.11400
H773        H  0.20720405  0.89448089  0.18388014     0.11400
H774        H  0.21922319  0.84645685  0.10680952     0.11400
C775        C  0.11190574  0.73156238  0.14078596    -0.14700
C776        C  0.11822208  0.73271690  0.16888303     0.07400
C777        C  0.09366251  0.72472960  0.18733778    -0.14700
C778        C  0.06274033  0.71761015  0.17793489    -0.14700
C779        C  0.05611051  0.71773943  0.14983879     0.07400
C780        C  0.08126273  0.72383614  0.13134319    -0.14700
H781        H  0.13054435  0.73743163  0.12614769     0.11400
H782        H  0.09783801  0.72552814  0.20899915     0.11400
H783        H  0.04385778  0.71290895  0.19263272     0.11400
H784        H  0.07695415  0.72397618  0.10954342     0.11400
C785        C  0.31651848  0.68703184  0.14031243    -0.14700
C786        C  0.30870560  0.69003937  0.16809237     0.07400
C787        C  0.33187760  0.70227690  0.18605412    -0.14700
C788        C  0.36302534  0.70915180  0.17674417    -0.14700
C789        C  0.37114914  0.70469766  0.14916580     0.07400
C790        C  0.34727898  0.69448352  0.13093044    -0.14700
H791        H  0.29897578  0.67814639  0.12590673     0.11400
H792        H  0.32645405  0.70506682  0.20746474     0.11400
H793        H  0.38088662  0.71729550  0.19117268     0.11400
H794        H  0.35271133  0.69102483  0.10951180     0.11400
C795        C  0.21995752  0.57936785  0.18516630    -0.14700
C796        C  0.22149456  0.60810920  0.17010340     0.07400
C797        C  0.21588382  0.60694318  0.14175914    -0.14700
C798        C  0.21115523  0.57782354  0.12858703    -0.14700
C799        C  0.21157187  0.54922868  0.14354130     0.07400
C800        C  0.21494936  0.55032776  0.17198660    -0.14700
H801        H  0.22415597  0.57839929  0.20684240     0.11400
H802        H  0.21694200  0.62856401  0.12955796     0.11400
H803        H  0.20834793  0.57760514  0.10660443     0.11400
H804        H  0.21522975  0.52853243  0.18398341     0.11400
C805        C  0.08701674  0.98610746  0.03398360    -0.14700
C806        C  0.06033178  0.98217055  0.05116460     0.07400
C807        C  0.06454712  0.96941888  0.07737485    -0.14700
C808        C  0.09523952  0.96168698  0.08669418    -0.14700
C809        C  0.12227927  0.96684809  0.07000733     0.07400
C810        C  0.11781585  0.97839231  0.04329521    -0.14700
H811        H  0.08426146  0.99673709  0.01395204     0.11400
H812        H  0.04419472  0.96657258  0.09096006     0.11400
H813        H  0.09792437  0.95286154  0.10738180     0.11400
H814        H  0.13821780  0.98285507  0.03009314     0.11400
C815        C  0.97326728  0.56711968  0.08351475    -0.14700
C816        C  0.47466611  0.56545621  0.05481110     0.07400
C817        C  0.46838091  0.59346125  0.03964434    -0.14700
C818        C  0.46374679  0.62257814  0.05283897    -0.14700
C819        C  0.46506744  0.62440239  0.08139642     0.07400
C820        C  0.46882900  0.59628758  0.09666585    -0.14700
H821        H  0.97733388  0.54594497  0.09581153     0.11400
H822        H  0.46774379  0.59374224  0.01765732     0.11400
H823        H  0.46017344  0.64388445  0.04060228     0.11400
H824        H  0.96940992  0.59696936  0.11876796     0.11400
C825        C  0.34504386  0.95557745  0.03894251    -0.14700
C826        C  0.36812378  0.94322104  0.05696166     0.07400
C827        C  0.36028718  0.94017347  0.08475694    -0.14700
C828        C  0.32952071  0.94747709  0.09405354    -0.14700
C829        C  0.30568295  0.95744221  0.07568782     0.07400
C830        C  0.31386944  0.96217420  0.04813535    -0.14700
H831        H  0.35049890  0.95861919  0.01757108     0.11400
H832        H  0.37777036  0.93124999  0.09922314     0.11400
H833        H  0.32399043  0.94385561  0.11546145     0.11400
H834        H  0.29601293  0.97022691  0.03363158     0.11400
C835        C  0.45895984  0.85837583  0.08379688    -0.14700
C836        C  0.45399062  0.86003565  0.05535222     0.07400
C837        C  0.45623745  0.83154900  0.04018443    -0.14700
C838        C  0.46089469  0.80230238  0.05327629    -0.14700
C839        C  0.46341929  0.80063115  0.08176509     0.07400
C840        C  0.46338943  0.82898305  0.09690073    -0.14700
H841        H  0.45764104  0.87979601  0.09608380     0.11400
H842        H  0.45315515  0.83086319  0.01839155     0.11400
H843        H  0.46118853  0.78076600  0.04108926     0.11400
H844        H  0.46572046  0.82835787  0.11892045     0.11400
C845        C  0.31642802  0.70092332  0.33518037    -0.14700
C846        C  0.31498984  0.70024904  0.30644425     0.07400
C847        C  0.34321896  0.70689561  0.29156797    -0.14700
C848        C  0.37232396  0.71126625  0.30502211    -0.14700
C849        C  0.37393951  0.70941398  0.33357153     0.07400
C850        C  0.34562204  0.70516721  0.34861171    -0.14700
H851        H  0.29505870  0.69652060  0.34725214     0.11400
H852        H  0.34373125  0.70800740  0.26960740     0.11400
H853        H  0.39378379  0.71522385  0.29296421     0.11400
H854        H  0.34615607  0.70422196  0.37071105     0.11400
C855        C  0.21185160  0.60855511  0.32124722    -0.14700
C856        C  0.23297676  0.61353593  0.29937294     0.07400
C857        C  0.24569803  0.58718987  0.28551374    -0.14700
C858        C  0.23833708  0.55610125  0.29408573    -0.14700
C859        C  0.21845395  0.55094827  0.31688691     0.07400
C860        C  0.20466051  0.57746122  0.32999311    -0.14700
H861        H  0.20209370  0.62871630  0.33227403     0.11400
H862        H  0.26232842  0.59074024  0.26874239     0.11400
H863        H  0.24939841  0.53616414  0.28368197     0.11400
H864        H  0.18925555  0.57419455  0.34761718     0.11400
C865        C  0.18767520  0.83458463  0.28346358    -0.14700
C866        C  0.19423614  0.80815906  0.30022431     0.07400
C867        C  0.20894845  0.81284634  0.32556949    -0.14700
C868        C  0.21594666  0.84373914  0.33455760    -0.14700
C869        C  0.20812216  0.87044429  0.31837096     0.07400
C870        C  0.19469934  0.86553876  0.29241341    -0.14700
H871        H  0.17549949  0.83141824  0.26416226     0.11400
H872        H  0.21371340  0.79267724  0.33887894     0.11400
H873        H  0.22626091  0.84677809  0.35466149     0.11400
H874        H  0.18827522  0.88565689  0.27958367     0.11400
C875        C  0.08084988  0.72020313  0.29112971    -0.14700
C876        C  0.10945232  0.72431748  0.30608535     0.07400
C877        C  0.10782287  0.72266916  0.33479888    -0.14700
C878        C  0.07839470  0.71935580  0.34817944    -0.14700
C879        C  0.04993511  0.71713657  0.33312196     0.07400
C880        C  0.05151049  0.71669840  0.30454227    -0.14700
H881        H  0.08021715  0.72055532  0.26917392     0.11400
H882        H  0.12933592  0.72549014  0.34693602     0.11400
H883        H  0.07785160  0.71932908  0.37029182     0.11400
H884        H  0.02988288  0.71454838  0.29244940     0.11400
C885        C  0.48470708  0.59911007  0.38267793    -0.14700
C886        C  0.47235598  0.62169336  0.40103007     0.07400
C887        C  0.46595971  0.61215406  0.42804290    -0.14700
C888        C  0.47260783  0.58074430  0.43657955    -0.14700
C889        C  0.48657722  0.55872146  0.41848031     0.07400
C890        C  0.49181454  0.56815096  0.39128776    -0.14700
H891        H  0.48970324  0.60558654  0.36166017     0.11400
H892        H  0.45614118  0.62898050  0.44255070     0.11400
H893        H  0.46781453  0.57413695  0.45750549     0.11400
H894        H  0.00183678  0.55162396  0.37663340     0.11400
C895        C  0.09476888  0.96568769  0.43352410    -0.14700
C896        C  0.06608030  0.96909511  0.41854185     0.07400
C897        C  0.06729935  0.96459060  0.39005499    -0.14700
C898        C  0.09653087  0.95967059  0.37672074    -0.14700
C899        C  0.12521789  0.95882237  0.39161974     0.07400
C900        C  0.12391950  0.96065539  0.42016602    -0.14700
H901        H  0.09571425  0.96838596  0.45534462     0.11400
H902        H  0.04572340  0.96682112  0.37790168     0.11400
H903        H  0.09681133  0.95796070  0.35466150     0.11400
H904        H  0.14569142  0.95963884  0.43217813     0.11400
C905        C  0.45886937  0.81440045  0.42851183    -0.14700
C906        C  0.45428465  0.80635678  0.40096653     0.07400
C907        C  0.44434380  0.83026423  0.38262478    -0.14700
C908        C  0.43717344  0.86093213  0.39187513    -0.14700
C909        C  0.44017265  0.86865580  0.41963522     0.07400
C910        C  0.45225901  0.84544896  0.43768062    -0.14700
H911        H  0.46688524  0.79655635  0.44302944     0.11400
H912        H  0.44092911  0.82496949  0.36119504     0.11400
H913        H  0.42851855  0.87849556  0.37736209     0.11400
H914        H  0.45528214  0.85076875  0.45903399     0.11400
C915        C  0.32980748  0.95847570  0.43507039    -0.14700
C916        C  0.35876115  0.95620161  0.42022245     0.07400
C917        C  0.35771120  0.96103474  0.39175169    -0.14700
C918        C  0.32850382  0.96507262  0.37826727    -0.14700
C919        C  0.29961232  0.96467741  0.39296712     0.07400
C920        C  0.30061769  0.96262221  0.42153406    -0.14700
H921        H  0.32876888  0.95544436  0.45688858     0.11400
H922        H  0.37947771  0.95968176  0.37969986     0.11400
H923        H  0.32846148  0.96708604  0.35621176     0.11400
H924        H  0.27866035  0.96272259  0.43339128     0.11400
C925        C  0.39006499  0.94436746  0.93278668     0.85100
C926        C  0.39085066  0.93886101  0.96392779    -0.55100
C927        C  0.41909911  0.92685711  0.97327733     0.08000
C928        C  0.44436040  0.92129950  0.95079500     0.19000
C929        C  0.41901129  0.96631057  0.92738557    -0.55800
C930        C  0.44738217  0.95420041  0.93666296     0.08100
C931        C  0.39943870  0.91196301  0.92052867    -0.55400
C932        C  0.42777084  0.89977505  0.92967662     0.08700
H933        H  0.37147503  0.94393248  0.97777188     0.13200
H934        H  0.46748578  0.91177507  0.95856010    -0.01000
H935        H  0.41717700  0.98951668  0.91751665     0.13500
H936        H  0.38446893  0.89949352  0.90585982     0.13300
C937        C  0.03501809  0.98150910  0.93114989     0.85100
C938        C  0.03447638  0.98708811  0.96225441    -0.55100
C939        C  0.00652003  0.49977245  0.97158004     0.08000
C940        C  0.48124446  0.50558712  0.94934307     0.19000
C941        C  0.00567292  0.96002106  0.92623401    -0.55800
C942        C  0.47760553  0.97257305  0.93580282     0.08900
C943        C  0.02613115  0.51405586  0.91868632    -0.55400
C944        C  0.49807381  0.52682067  0.92796144     0.08700
H945        H  0.05348528  0.98099948  0.97625008     0.13200
H946        H  0.45833625  0.51542993  0.95727224    -0.01000
H947        H  0.00711447  0.93657683  0.91689458     0.13500
H948        H  0.04148186  0.52632353  0.90405788     0.13300
C949        C  0.14122276  0.73377646  0.79292343     0.85100
C950        C  0.14201708  0.73734161  0.76153680    -0.55100
C951        C  0.17079447  0.74737987  0.75153207     0.08000
C952        C  0.19642862  0.75294993  0.77341933     0.19000
C953        C  0.16906411  0.71076218  0.79906192    -0.55800
C954        C  0.19786786  0.72088072  0.78881711     0.08100
C955        C  0.15236022  0.76649185  0.80352498    -0.55400
C956        C  0.18104845  0.77647031  0.79338807     0.08700
H957        H  0.12217216  0.73310266  0.74808153     0.13200
H958        H  0.21988634  0.76105717  0.76505942    -0.01000
H959        H  0.16609803  0.68814825  0.80973242     0.13500
H960        H  0.13834608  0.78092917  0.81754972     0.13300
C961        C  0.28386659  0.68960690  0.79310101     0.85100
C962        C  0.28360109  0.68632396  0.76170725    -0.55100
C963        C  0.25525115  0.67553890  0.75157146     0.08000
C964        C  0.22937407  0.66923153  0.77336405     0.19000
C965        C  0.25540855  0.71170253  0.79921138    -0.55800
C966        C  0.22696342  0.70101569  0.78896059     0.08100
C967        C  0.27358026  0.65638845  0.80353649    -0.55400
C968        C  0.24518524  0.64582078  0.79330532     0.08700
H969        H  0.30366695  0.69073283  0.74831908     0.13200
H970        H  0.20622213  0.66065346  0.76486029    -0.01000
H971        H  0.25774403  0.73432631  0.80982542     0.13500
H972        H  0.28795427  0.64207536  0.81744122     0.13300
In973      In  0.46199574  0.71393278  0.87128784     1.36900
C974        C  0.01859840  0.71606886  0.84701400     0.76200
O975        O  0.45687777  0.76652529  0.86611452    -0.62200
O976        O  0.46216677  0.74909977  0.90658148    -0.53100
C977        C  0.40525598  0.71101649  0.84737403     0.68900
O978        O  0.43104879  0.71517632  0.83435679    -0.48000
C979        C  0.46722375  0.65486556  0.89140754     0.73600
O980        O  0.49265796  0.71290898  0.83407966    -0.59900
O981        O  0.46198973  0.67852361  0.90684156    -0.50000
O982        O  0.01549278  0.71859384  0.87258047    -0.56300
C983        C  0.45821955  0.77311365  0.89113898     0.83800
O984        O  0.40853143  0.70797991  0.87289038    -0.58200
O985        O  0.46876646  0.66177436  0.86640776    -0.61500
In986      In  0.21284470  0.96088405  0.85232536     1.36900
C987        C  0.21471132  0.51843547  0.82856433     0.76200
O988        O  0.15910733  0.95852808  0.85182072    -0.62200
O989        O  0.18283294  0.95946881  0.89018856    -0.53100
C990        C  0.21128986  0.90297847  0.82967464     0.68900
O991        O  0.20374023  0.92795436  0.81666395    -0.48000
C992        C  0.26859952  0.96406109  0.87846516     0.73600
O993        O  0.22500599  0.99357822  0.81699516    -0.59900
O994        O  0.24197645  0.96348989  0.89075090    -0.50000
O995        O  0.20226894  0.51348606  0.85164712    -0.56300
C996        C  0.15650800  0.95852464  0.87751018     0.83800
O997        O  0.22059475  0.90796040  0.85373234    -0.58200
O998        O  0.26657525  0.96307125  0.85278961    -0.61500
C999        C  0.44269379  0.89154891  0.54295222     0.85100
C1000       C  0.43635398  0.89242281  0.51192438    -0.55100
C1001       C  0.42494664  0.92084358  0.50260558     0.08000
C1002       C  0.42057220  0.94615395  0.52499171     0.19000
C1003       C  0.46562907  0.91978839  0.54759376    -0.55800
C1004       C  0.45401131  0.94829741  0.53824812     0.08100
C1005       C  0.41078078  0.90178020  0.55588548    -0.55400
C1006       C  0.39910405  0.93027400  0.54675912     0.08700
H1007       H  0.44053063  0.87304646  0.49803658     0.13200
H1008       H  0.41146017  0.96940380  0.51724557    -0.01000
H1009       H  0.48920490  0.91734762  0.55677550     0.13500
H1010       H  0.39816761  0.88719410  0.57086006     0.13300
C1011       C  0.48548215  0.53429664  0.54181715     0.85100
C1012       C  0.49008770  0.53383019  0.51054292    -0.55100
C1013       C  0.00071596  0.50535272  0.50079852     0.08000
C1014       C  0.00603045  0.97975753  0.52283228     0.19000
C1015       C  0.46266394  0.50615426  0.54750074    -0.55800
C1016       C  0.47348434  0.97768482  0.53764475     0.08100
C1017       C  0.01820471  0.52372020  0.55319459    -0.55400
C1018       C  0.02890377  0.99535439  0.54329293     0.08700
H1019       H  0.48630994  0.55378183  0.49697359     0.13200
H1020       H  0.01465673  0.95656331  0.51469023    -0.01000
H1021       H  0.43973544  0.50863846  0.55784358     0.13500
H1022       H  0.03203489  0.53777447  0.56762119     0.13300
C1023       C  0.23325039  0.63936461  0.68235015     0.85100
C1024       C  0.23888767  0.64047222  0.71344720    -0.55100
C1025       C  0.25066717  0.66891975  0.72234162     0.08000
C1026       C  0.25604508  0.69384749  0.69964421     0.19000
C1027       C  0.21087558  0.66785166  0.67700286    -0.55800
C1028       C  0.22289782  0.69630788  0.68595421     0.08100
C1029       C  0.26556820  0.64898612  0.66962547    -0.55400
C1030       C  0.27759452  0.67741412  0.67842503     0.08700
H1031       H  0.23323429  0.62153856  0.72776979     0.13200
H1032       H  0.26545064  0.71704742  0.70716306    -0.01000
H1033       H  0.18737505  0.66561649  0.66764862     0.13500
H1034       H  0.27810125  0.63412442  0.65493247     0.13300
C1035       C  0.19395481  0.78301939  0.68209421     0.85100
C1036       C  0.18860527  0.78167891  0.71322162    -0.55100
C1037       C  0.17635073  0.75346180  0.72230381     0.08000
C1038       C  0.17093035  0.72857793  0.69981355     0.19000
C1039       C  0.21615095  0.75444678  0.67667404    -0.55800
C1040       C  0.20403661  0.72600075  0.68588694     0.08100
C1041       C  0.16152582  0.77352857  0.66956403    -0.55400
C1042       C  0.14943007  0.74518284  0.67870350     0.08700
H1043       H  0.19493170  0.80029030  0.72742739     0.13200
H1044       H  0.16134683  0.70543745  0.70750529    -0.01000
H1045       H  0.23961437  0.75660384  0.66715961     0.13500
H1046       H  0.14897376  0.78831934  0.65476458     0.13300
In1047     In  0.21260773  0.96200090  0.60500363     1.36900
C1048       C  0.21319975  0.90553283  0.62955383     0.76200
O1049       O  0.15926827  0.95749157  0.60664694    -0.62200
O1050       O  0.18036214  0.96713646  0.56806497    -0.53100
C1051       C  0.21099500  0.51818838  0.62959358     0.68900
O1052       O  0.20965589  0.99206284  0.64239590    -0.48000
C1053       C  0.27229645  0.96064494  0.58544297     0.73600
O1054       O  0.21237400  0.93155722  0.64242270    -0.59900
O1055       O  0.24811697  0.96067005  0.56988353    -0.50000
O1056       O  0.21338927  0.90840996  0.60385181    -0.56300
C1057       C  0.15484924  0.96329425  0.58169016     0.83800
O1058       O  0.21281560  0.51555476  0.60399981    -0.58200
O1059       O  0.26566126  0.96222238  0.61047996    -0.61500
In1060     In  0.46386940  0.71218010  0.61900070     1.36900
C1061       C  0.46411003  0.65569955  0.59500962     0.76200
O1062       O  0.01703294  0.71232704  0.61440584    -0.62200
O1063       O  0.49833265  0.71358006  0.65473664    -0.53100
C1064       C  0.46426438  0.76924361  0.59543021     0.68900
O1065       O  0.46647602  0.74353349  0.58224786    -0.48000
C1066       C  0.40447220  0.70890445  0.63920099     0.73600
O1067       O  0.46119868  0.68155828  0.58193516    -0.59900
O1068       O  0.42878421  0.71080040  0.65457559    -0.50000
O1069       O  0.46696791  0.65882122  0.62053723    -0.56300
C1070       C  0.02296313  0.71398353  0.63956497     0.83800
O1071       O  0.46185615  0.76577003  0.62097230    -0.58200
O1072       O  0.41085089  0.70970139  0.61407449    -0.61500
C1073       C  0.21191497  0.81639520  0.64188745    -0.14700
C1074       C  0.20544067  0.81469027  0.67009437     0.07400
C1075       C  0.20504303  0.84341811  0.68509487    -0.14700
C1076       C  0.20895723  0.87279333  0.67196854    -0.14700
C1077       C  0.21315726  0.87432891  0.64359687     0.07400
C1078       C  0.21562772  0.84587267  0.62876299    -0.14700
H1079       H  0.21223356  0.79486798  0.62969617     0.11400
H1080       H  0.19982275  0.84412413  0.70661724     0.11400
H1081       H  0.20718376  0.89443404  0.68393143     0.11400
H1082       H  0.21922024  0.84641651  0.60685995     0.11400
C1083       C  0.11193354  0.73145326  0.64081422    -0.14700
C1084       C  0.11823802  0.73263438  0.66891248     0.07400
C1085       C  0.09366716  0.72467743  0.68736545    -0.14700
C1086       C  0.06274462  0.71756751  0.67795820    -0.14700
C1087       C  0.05612497  0.71767670  0.64986022     0.07400
C1088       C  0.08128921  0.72373576  0.63136750    -0.14700
H1089       H  0.13058119  0.73730043  0.62617802     0.11400
H1090       H  0.09783362  0.72549909  0.70902741     0.11400
H1091       H  0.04385306  0.71289352  0.69265394     0.11400
H1092       H  0.07698833  0.72385924  0.60956666     0.11400
C1093       C  0.31652281  0.68710342  0.64035935    -0.14700
C1094       C  0.30874157  0.69003588  0.66815144     0.07400
C1095       C  0.33194299  0.70219522  0.68612341    -0.14700
C1096       C  0.36308679  0.70907131  0.67680582    -0.14700
C1097       C  0.37117794  0.70469910  0.64921072     0.07400
C1098       C  0.34728032  0.69455981  0.63097009    -0.14700
H1099       H  0.29895737  0.67827020  0.62594985     0.11400
H1100       H  0.32654482  0.70492000  0.70754425     0.11400
H1101       H  0.38097020  0.71715272  0.69124018     0.11400
H1102       H  0.35268872  0.69116170  0.60953984     0.11400
C1103       C  0.22004332  0.57932888  0.68522089    -0.14700
C1104       C  0.22157027  0.60806970  0.67015623     0.07400
C1105       C  0.21596636  0.60689990  0.64181167    -0.14700
C1106       C  0.21124962  0.57777855  0.62864110    -0.14700
C1107       C  0.21167341  0.54918515  0.64359665     0.07400
C1108       C  0.21504918  0.55028605  0.67204215    -0.14700
H1109       H  0.22423789  0.57836332  0.70689788     0.11400
H1110       H  0.21701832  0.62852022  0.62960947     0.11400
H1111       H  0.20844312  0.57755852  0.60665841     0.11400
H1112       H  0.21533309  0.52849161  0.68403998     0.11400
C1113       C  0.08702352  0.98601554  0.53401152    -0.14700
C1114       C  0.06034524  0.98224428  0.55122786     0.07400
C1115       C  0.06456561  0.96966373  0.57749841    -0.14700
C1116       C  0.09525120  0.96192495  0.58683170    -0.14700
C1117       C  0.12228544  0.96691319  0.57010063     0.07400
C1118       C  0.11781789  0.97829979  0.54333976    -0.14700
H1119       H  0.08427228  0.99651807  0.51393336     0.11400
H1120       H  0.04422212  0.96694685  0.59111200     0.11400
H1121       H  0.09793702  0.95322566  0.60755753     0.11400
H1122       H  0.13821553  0.98263005  0.53010109     0.11400
C1123       C  0.97318638  0.56714508  0.58348726    -0.14700
C1124       C  0.47463085  0.56548699  0.55478732     0.07400
C1125       C  0.46836317  0.59349521  0.53961883    -0.14700
C1126       C  0.46372113  0.62261132  0.55281427    -0.14700
C1127       C  0.46501837  0.62442967  0.58137302     0.07400
C1128       C  0.46875153  0.59631011  0.59664096    -0.14700
H1129       H  0.97723042  0.54596665  0.59578506     0.11400
H1130       H  0.46775510  0.59378053  0.51763108     0.11400
H1131       H  0.46016865  0.64392193  0.54057846     0.11400
H1132       H  0.96929208  0.59698640  0.61874119     0.11400
C1133       C  0.34507985  0.95555967  0.53896646    -0.14700
C1134       C  0.36816100  0.94319414  0.55698105     0.07400
C1135       C  0.36031696  0.94011887  0.58477271    -0.14700
C1136       C  0.32954696  0.94740825  0.59406928    -0.14700
C1137       C  0.30571035  0.95738745  0.57570791     0.07400
C1138       C  0.31390081  0.96214153  0.54815880    -0.14700
H1139       H  0.35053918  0.95862531  0.51759839     0.11400
H1140       H  0.37779876  0.93118906  0.59923721     0.11400
H1141       H  0.32401456  0.94376932  0.61547458     0.11400
H1142       H  0.29604603  0.97020575  0.53365820     0.11400
C1143       C  0.45906984  0.85840175  0.58379583    -0.14700
C1144       C  0.45407292  0.86005487  0.55535369     0.07400
C1145       C  0.45629469  0.83156269  0.54019176    -0.14700
C1146       C  0.46094836  0.80231790  0.55328780    -0.14700
C1147       C  0.46349353  0.80065235  0.58177572     0.07400
C1148       C  0.46349562  0.82900972  0.59690459    -0.14700
H1149       H  0.45777051  0.87982639  0.59607852     0.11400
H1150       H  0.45318772  0.83087144  0.51840174     0.11400
H1151       H  0.46121793  0.78077793  0.54110501     0.11400
H1152       H  0.46584444  0.82838954  0.61892298     0.11400
C1153       C  0.31644167  0.70091426  0.83522835    -0.14700
C1154       C  0.31500101  0.70024080  0.80649289     0.07400
C1155       C  0.34322581  0.70689911  0.79161369    -0.14700
C1156       C  0.37233111  0.71127372  0.80506459    -0.14700
C1157       C  0.37394987  0.70941573  0.83361304     0.07400
C1158       C  0.34563577  0.70516441  0.84865646    -0.14700
H1159       H  0.29507523  0.69650398  0.84730186     0.11400
H1160       H  0.34373647  0.70801505  0.76965339     0.11400
H1161       H  0.39378890  0.71523641  0.79300492     0.11400
H1162       H  0.34617332  0.70421581  0.87075560     0.11400
C1163       C  0.21188550  0.60851308  0.82128610    -0.14700
C1164       C  0.23301497  0.61349664  0.79941546     0.07400
C1165       C  0.24572595  0.58715324  0.78554589    -0.14700
C1166       C  0.23834924  0.55606298  0.79410381    -0.14700
C1167       C  0.21846136  0.55090629  0.81690134     0.07400
C1168       C  0.20467936  0.57741778  0.83001823    -0.14700
H1169       H  0.20213317  0.62867234  0.83231895     0.11400
H1170       H  0.26235737  0.59070593  0.76877574     0.11400
H1171       H  0.24940211  0.53612677  0.78369245     0.11400
H1172       H  0.18927132  0.57414812  0.84764002     0.11400
C1173       C  0.18766467  0.83452212  0.78348633    -0.14700
C1174       C  0.19423060  0.80810062  0.80024960     0.07400
C1175       C  0.20894616  0.81279267  0.82559270    -0.14700
C1176       C  0.21594299  0.84368756  0.83457603    -0.14700
C1177       C  0.20811400  0.87038878  0.81838601     0.07400
C1178       C  0.19468833  0.86547772  0.79243065    -0.14700
H1179       H  0.17548416  0.83135196  0.76418780     0.11400
H1180       H  0.21371424  0.79262607  0.83890422     0.11400
H1181       H  0.22625908  0.84673123  0.85467863     0.11400
H1182       H  0.18826122  0.88559273  0.77959865     0.11400
C1183       C  0.08086332  0.72009254  0.79117148    -0.14700
C1184       C  0.10945837  0.72425142  0.80612797     0.07400
C1185       C  0.10782358  0.72264453  0.83484276    -0.14700
C1186       C  0.07839479  0.71933561  0.84822170    -0.14700
C1187       C  0.04994053  0.71707582  0.83316194     0.07400
C1188       C  0.05152255  0.71659209  0.80458297    -0.14700
H1189       H  0.08023846  0.72040160  0.76921517     0.11400
H1190       H  0.12933183  0.72549700  0.84698052     0.11400
H1191       H  0.07784672  0.71934520  0.87033391     0.11400
H1192       H  0.02989932  0.71440695  0.79248910     0.11400
C1193       C  0.48465339  0.59907450  0.88269239    -0.14700
C1194       C  0.47232031  0.62165905  0.90105177     0.07400
C1195       C  0.46594052  0.61212264  0.92806773    -0.14700
C1196       C  0.47259067  0.58071324  0.93660070    -0.14700
C1197       C  0.48654716  0.55869122  0.91849428     0.07400
C1198       C  0.49176512  0.56811657  0.89129900    -0.14700
H1199       H  0.48963668  0.60555032  0.86167224     0.11400
H1200       H  0.45613578  0.62895129  0.94258045     0.11400
H1201       H  0.46781213  0.57410598  0.95752920     0.11400
H1202       H  0.00178444  0.55158868  0.87663901     0.11400
C1203       C  0.09478514  0.96572988  0.93354499    -0.14700
C1204       C  0.06609276  0.96910692  0.91856249     0.07400
C1205       C  0.06731154  0.96458468  0.89007822    -0.14700
C1206       C  0.09654175  0.95965677  0.87674562    -0.14700
C1207       C  0.12523005  0.95882106  0.89164289     0.07400
C1208       C  0.12393588  0.96068899  0.92018782    -0.14700
H1209       H  0.09573146  0.96845737  0.95536232     0.11400
H1210       H  0.04573422  0.96679965  0.87792465     0.11400
H1211       H  0.09681936  0.95792551  0.85468784     0.11400
H1212       H  0.14570996  0.95969094  0.93219817     0.11400
C1213       C  0.45883466  0.81434810  0.92855242    -0.14700
C1214       C  0.45429666  0.80631215  0.90100026     0.07400
C1215       C  0.44439753  0.83022579  0.88264799    -0.14700
C1216       C  0.43722397  0.86089476  0.89189209    -0.14700
C1217       C  0.44017986  0.86861258  0.91965610     0.07400
C1218       C  0.45222252  0.84539787  0.93771521    -0.14700
H1219       H  0.46681523  0.79649778  0.94307890     0.11400
H1220       H  0.44101796  0.82493581  0.86121340     0.11400
H1221       H  0.42859988  0.87846415  0.87737075     0.11400
H1222       H  0.45521046  0.85071280  0.95907225     0.11400
C1223       C  0.32981626  0.95843823  0.93503729    -0.14700
C1224       C  0.35876977  0.95615734  0.92019047     0.07400
C1225       C  0.35772055  0.96097574  0.89171770    -0.14700
C1226       C  0.32851276  0.96501090  0.87823228    -0.14700
C1227       C  0.29962233  0.96462620  0.89293416     0.07400
C1228       C  0.30062819  0.96258089  0.92150077    -0.14700
H1229       H  0.32877440  0.95541600  0.95685578     0.11400
H1230       H  0.37948710  0.95961540  0.87966663     0.11400
H1231       H  0.32846887  0.96701471  0.85617625     0.11400
H1232       H  0.27867169  0.96268794  0.93335908     0.11400
C1233       C  0.89006136  0.44439918  0.43281350     0.85100
C1234       C  0.89085478  0.43887016  0.46395161    -0.55100
C1235       C  0.91910878  0.42686416  0.47329069     0.08000
C1236       C  0.94436483  0.42132619  0.45080026     0.19000
C1237       C  0.91900385  0.46634986  0.42741847    -0.55800
C1238       C  0.94737868  0.45423722  0.43668389     0.08100
C1239       C  0.89943648  0.41200371  0.42053856    -0.55400
C1240       C  0.92777320  0.39981308  0.42967417     0.08700
H1241       H  0.87147875  0.44392837  0.47779943     0.13200
H1242       H  0.96749396  0.41180065  0.45855616    -0.01000
H1243       H  0.91716496  0.48956009  0.41755738     0.13500
H1244       H  0.88446234  0.39954131  0.40586871     0.13300
C1245       C  0.53501702  0.48151731  0.43114048     0.85100
C1246       C  0.53448838  0.48709935  0.46224485    -0.55100
C1247       C  0.50654510  0.99979669  0.47157091     0.08000
C1248       C  0.98126008  0.00562145  0.44933530     0.19000
C1249       C  0.50566225  0.46004107  0.42623337    -0.55800
C1250       C  0.97760525  0.47260544  0.43581105     0.08900
C1251       C  0.52614461  0.01406400  0.41867039    -0.55400
C1252       C  0.99809313  0.02684434  0.42794532     0.08700
H1253       H  0.55349997  0.48100560  0.47623563     0.13200
H1254       H  0.95835938  0.01547614  0.45726882    -0.01000
H1255       H  0.50709200  0.43659505  0.41689594     0.13500
H1256       H  0.54149903  0.02632145  0.40403867     0.13300
C1257       C  0.64122232  0.23383883  0.29288686     0.85100
C1258       C  0.64201687  0.23741264  0.26150123    -0.55100
C1259       C  0.67079509  0.24744899  0.25149776     0.08000
C1260       C  0.69643028  0.25301113  0.27338525     0.19000
C1261       C  0.66906083  0.21081854  0.29901850    -0.55800
C1262       C  0.69786581  0.22093565  0.28877490     0.08100
C1263       C  0.65236440  0.26654912  0.30349592    -0.55400
C1264       C  0.68105255  0.27652899  0.29335880     0.08700
H1265       H  0.62217349  0.23317371  0.24804456     0.13200
H1266       H  0.71988862  0.26111758  0.26502612    -0.01000
H1267       H  0.66609139  0.18820043  0.30968191     0.13500
H1268       H  0.63835176  0.28098331  0.31752406     0.13300
C1269       C  0.78385412  0.18962518  0.29305006     0.85100
C1270       C  0.78358647  0.18633346  0.26165580    -0.55100
C1271       C  0.75522929  0.17555962  0.25152244     0.08000
C1272       C  0.72935030  0.16927097  0.27331779     0.19000
C1273       C  0.75540706  0.21173656  0.29915601    -0.55800
C1274       C  0.72695614  0.20106132  0.28890842     0.08100
C1275       C  0.77355140  0.15641500  0.30349137    -0.55400
C1276       C  0.74515168  0.14585728  0.29326284     0.08700
H1277       H  0.80365543  0.19072976  0.24826650     0.13200
H1278       H  0.70619377  0.16070167  0.26481663    -0.01000
H1279       H  0.75775339  0.23436017  0.30976863     0.13500
H1280       H  0.78792041  0.14209744  0.31739663     0.13300
In1281     In  0.96199137  0.21397096  0.37125370     1.36900
C1282       C  0.51859620  0.21612173  0.34697661     0.76200
O1283       O  0.95685778  0.26656716  0.36608145    -0.62200
O1284       O  0.96217232  0.24914447  0.40654568    -0.53100
C1285       C  0.90524805  0.21102971  0.34733603     0.68900
O1286       O  0.93104000  0.21520814  0.33432194    -0.48000
C1287       C  0.96725371  0.15490201  0.39137834     0.73600
O1288       O  0.99265298  0.21295190  0.33404383    -0.59900
O1289       O  0.96198029  0.17855607  0.40680752    -0.50000
O1290       O  0.51549092  0.21865104  0.37254280    -0.56300
C1291       C  0.95821423  0.27315808  0.39110489     0.83800
O1292       O  0.90852508  0.20798753  0.37285191    -0.58200
O1293       O  0.96882027  0.16181460  0.36638023    -0.61500
In1294     In  0.71284911  0.46093439  0.35232729     1.36900
C1295       C  0.71471234  0.01847774  0.32855641     0.76200
O1296       O  0.65910975  0.45855817  0.35180664    -0.62200
O1297       O  0.68282227  0.45951767  0.39017965    -0.53100
C1298       C  0.71129521  0.40303309  0.32966493     0.68900
O1299       O  0.70376784  0.42801478  0.31665309    -0.48000
C1300       C  0.76859479  0.46410549  0.37849078     0.73600
O1301       O  0.72502786  0.49362681  0.31700035    -0.59900
O1302       O  0.74196589  0.46354379  0.39076739    -0.50000
O1303       O  0.70225912  0.01353044  0.35163547    -0.56300
C1304       C  0.65650195  0.45855526  0.37749544     0.83800
O1305       O  0.72057951  0.40800698  0.35372983    -0.58200
O1306       O  0.76658003  0.46310780  0.35281497    -0.61500
C1307       C  0.94263108  0.39153028  0.04295281     0.85100
C1308       C  0.93631126  0.39240933  0.01192369    -0.55100
C1309       C  0.92492265  0.42083422  0.00260076     0.08000
C1310       C  0.92054117  0.44614497  0.02498601     0.19000
C1311       C  0.96557294  0.41976170  0.04760780    -0.55800
C1312       C  0.95396987  0.44827592  0.03825998     0.08100
C1313       C  0.91071414  0.40177121  0.05587277    -0.55400
C1314       C  0.89905633  0.43027132  0.04674399     0.08700
H1315       H  0.94048423  0.37303171  0.99803790     0.13200
H1316       H  0.91144183  0.46939858  0.01723710    -0.01000
H1317       H  0.98914320  0.41731169  0.05679829     0.13500
H1318       H  0.89808784  0.38719172  0.07084423     0.13300
C1319       C  0.98549009  0.03426188  0.04182880     0.85100
C1320       C  0.99007285  0.03380008  0.01055140    -0.55100
C1321       C  0.50067247  0.00531990  0.00079517     0.08000
C1322       C  0.50598797  0.47971110  0.02283234     0.19000
C1323       C  0.96265908  0.00613122  0.04752088    -0.55800
C1324       C  0.97345502  0.47765370  0.03765995     0.08100
C1325       C  0.51821799  0.02366721  0.05317825    -0.55400
C1326       C  0.52888321  0.49528918  0.04328147     0.08700
H1327       H  0.98631425  0.05376169  0.99698899     0.13200
H1328       H  0.51459621  0.45651455  0.01468103    -0.01000
H1329       H  0.93973964  0.00862632  0.05787625     0.13500
H1330       H  0.53207483  0.03771237  0.06759277     0.13300
C1331       C  0.73319126  0.13939683  0.18230139     0.85100
C1332       C  0.73883870  0.14049965  0.21339812    -0.55100
C1333       C  0.75063397  0.16894186  0.22229225     0.08000
C1334       C  0.75601391  0.19386908  0.19959474     0.19000
C1335       C  0.71082782  0.16789422  0.17695998    -0.55800
C1336       C  0.72286422  0.19634455  0.18591120     0.08100
C1337       C  0.76551030  0.14900536  0.16957245    -0.55400
C1338       C  0.77755154  0.17742887  0.17837047     0.08700
H1339       H  0.73318297  0.12156642  0.22772044     0.13200
H1340       H  0.76542897  0.21706513  0.20711329    -0.01000
H1341       H  0.68732452  0.16567016  0.16760899     0.13500
H1342       H  0.77803361  0.13413534  0.15487985     0.13300
C1343       C  0.69396016  0.28307017  0.18205523     0.85100
C1344       C  0.68862020  0.28173387  0.21318393    -0.55100
C1345       C  0.67635429  0.25352350  0.22226927     0.08000
C1346       C  0.67091606  0.22864038  0.19978135     0.19000
C1347       C  0.71614149  0.25448701  0.17663058    -0.55800
C1348       C  0.70401681  0.22604677  0.18584732     0.08100
C1349       C  0.66152301  0.27359392  0.16953280    -0.55400
C1350       C  0.64941666  0.24525410  0.17867579     0.08700
H1351       H  0.69495799  0.30034360  0.22738823     0.13200
H1352       H  0.66132445  0.20550454  0.20747604    -0.01000
H1353       H  0.73960267  0.25663282  0.16711057     0.13500
H1354       H  0.64897407  0.28838985  0.15473517     0.13300
In1355     In  0.71257458  0.46203795  0.10495698     1.36900
C1356       C  0.71319898  0.40557491  0.12950737     0.76200
O1357       O  0.65924631  0.45739773  0.10656095    -0.62200
O1358       O  0.68035236  0.46720185  0.06801159    -0.53100
C1359       C  0.71090124  0.01822921  0.12954067     0.68900
O1360       O  0.70954244  0.49210740  0.14234135    -0.48000
C1361       C  0.77226845  0.46068871  0.08541853     0.73600
O1362       O  0.71235417  0.43159962  0.14237621    -0.59900
O1363       O  0.74809527  0.46070384  0.06985231    -0.50000
O1364       O  0.71339569  0.40844988  0.10380500    -0.56300
C1365       C  0.65483751  0.46326131  0.08161327     0.83800
O1366       O  0.71277376  0.01559259  0.10395012    -0.58200
O1367       O  0.76562522  0.46227313  0.11045386    -0.61500
In1368     In  0.96385312  0.21216585  0.11899675     1.36900
C1369       C  0.96414114  0.15567401  0.09502813     0.76200
O1370       O  0.51701149  0.21242240  0.11439195    -0.62200
O1371       O  0.99831937  0.21353115  0.15473310    -0.53100
C1372       C  0.96420787  0.26921984  0.09541904     0.68900
O1373       O  0.96644481  0.24351082  0.08223773    -0.48000
C1374       C  0.90444655  0.20889672  0.13917124     0.73600
O1375       O  0.96121818  0.18152560  0.08194526    -0.59900
O1376       O  0.92874324  0.21087250  0.15455654    -0.50000
O1377       O  0.96698652  0.15880718  0.12055613    -0.56300
C1378       C  0.52294699  0.21401886  0.13955305     0.83800
O1379       O  0.96179434  0.26574782  0.12096071    -0.58200
O1380       O  0.91084612  0.20960428  0.11404701    -0.61500
C1381       C  0.71192854  0.31643817  0.14184585    -0.14700
C1382       C  0.70545364  0.31473643  0.17005288     0.07400
C1383       C  0.70505201  0.34346599  0.18505063    -0.14700
C1384       C  0.70896449  0.37283946  0.17192240    -0.14700
C1385       C  0.71316560  0.37437218  0.14355115     0.07400
C1386       C  0.71563933  0.34591468  0.12871909    -0.14700
H1387       H  0.71224720  0.29490961  0.12965622     0.11400
H1388       H  0.69982673  0.34417506  0.20657192     0.11400
H1389       H  0.70718675  0.39448108  0.18388346     0.11400
H1390       H  0.71923072  0.34645676  0.10681586     0.11400
C1391       C  0.61190203  0.23156233  0.14079040    -0.14700
C1392       C  0.61821946  0.23271488  0.16888732     0.07400
C1393       C  0.59366075  0.22472523  0.18734229    -0.14700
C1394       C  0.56273828  0.21760570  0.17793980    -0.14700
C1395       C  0.55610743  0.21773730  0.14984384     0.07400
C1396       C  0.58125890  0.22383623  0.13134801    -0.14700
H1397       H  0.63053991  0.23743306  0.12615188     0.11400
H1398       H  0.59783708  0.22552195  0.20900362     0.11400
H1399       H  0.54385637  0.21290275  0.19263781     0.11400
H1400       H  0.57694971  0.22397786  0.10954838     0.11400
C1401       C  0.81651563  0.18703460  0.14031446    -0.14700
C1402       C  0.80870366  0.19003944  0.16809473     0.07400
C1403       C  0.83187596  0.20227571  0.18605679    -0.14700
C1404       C  0.86302339  0.20915143  0.17674677    -0.14700
C1405       C  0.87114660  0.20469936  0.14916804     0.07400
C1406       C  0.84727581  0.19448734  0.13093235    -0.14700
H1407       H  0.79897244  0.17815019  0.12590859     0.11400
H1408       H  0.82645294  0.20506386  0.20746762     0.11400
H1409       H  0.88088505  0.21729360  0.19117559     0.11400
H1410       H  0.85270758  0.19103065  0.10951333     0.11400
C1411       C  0.71995096  0.07936721  0.18516897    -0.14700
C1412       C  0.72149341  0.10810783  0.17010538     0.07400
C1413       C  0.71588654  0.10694125  0.14176061    -0.14700
C1414       C  0.71115778  0.07782157  0.12858877    -0.14700
C1415       C  0.71157020  0.04922713  0.14354367     0.07400
C1416       C  0.71494283  0.05032691  0.17198941    -0.14700
H1417       H  0.72414460  0.07839935  0.20684582     0.11400
H1418       H  0.71694811  0.12856157  0.12955898     0.11400
H1419       H  0.70835389  0.07760274  0.10660580     0.11400
H1420       H  0.71521923  0.02853190  0.18398679     0.11400
C1421       C  0.58701620  0.48610948  0.03398956    -0.14700
C1422       C  0.56033137  0.48217074  0.05117038     0.07400
C1423       C  0.56454684  0.46941650  0.07737976    -0.14700
C1424       C  0.59523951  0.46168423  0.08669855    -0.14700
C1425       C  0.62227914  0.46684755  0.07001197     0.07400
C1426       C  0.61781540  0.47839410  0.04330068    -0.14700
H1427       H  0.58426065  0.49674034  0.01395864     0.11400
H1428       H  0.54419445  0.46656824  0.09096462     0.11400
H1429       H  0.59792466  0.45285676  0.10738549     0.11400
H1430       H  0.63821722  0.48285839  0.03009879     0.11400
C1431       C  0.47327028  0.06712044  0.08351192    -0.14700
C1432       C  0.97466816  0.06545646  0.05480956     0.07400
C1433       C  0.96837789  0.09346120  0.03964411    -0.14700
C1434       C  0.96374338  0.12257744  0.05284002    -0.14700
C1435       C  0.96506905  0.12440109  0.08139746     0.07400
C1436       C  0.96883627  0.09628628  0.09666577    -0.14700
H1437       H  0.47733902  0.04594531  0.09580777     0.11400
H1438       H  0.96773649  0.09374197  0.01765711     0.11400
H1439       H  0.96016551  0.14388366  0.04060431     0.11400
H1440       H  0.46941442  0.09696797  0.11876648     0.11400
C1441       C  0.84504365  0.45556620  0.03894421    -0.14700
C1442       C  0.86812407  0.44321215  0.05696392     0.07400
C1443       C  0.86028776  0.44016552  0.08475931    -0.14700
C1444       C  0.82952111  0.44746897  0.09405567    -0.14700
C1445       C  0.80568317  0.45743278  0.07568951     0.07400
C1446       C  0.81386924  0.46216266  0.04813678    -0.14700
H1447       H  0.85049856  0.45860661  0.01757259     0.11400
H1448       H  0.87777133  0.43124350  0.09922574     0.11400
H1449       H  0.82399102  0.44384896  0.11546373     0.11400
H1450       H  0.79601248  0.47021412  0.03363263     0.11400
C1451       C  0.95896908  0.35837266  0.08379725    -0.14700
C1452       C  0.95399409  0.36003155  0.05535329     0.07400
C1453       C  0.95623288  0.33154372  0.04018630    -0.14700
C1454       C  0.96088908  0.30229729  0.05327851    -0.14700
C1455       C  0.96341997  0.30062735  0.08176688     0.07400
C1456       C  0.96339762  0.32897998  0.09690154    -0.14700
H1457       H  0.95765545  0.37979356  0.09608354     0.11400
H1458       H  0.95314331  0.33085673  0.01839422     0.11400
H1459       H  0.96117636  0.28076014  0.04109236     0.11400
H1460       H  0.96573355  0.32835556  0.11892079     0.11400
C1461       C  0.81643095  0.20092435  0.33518077    -0.14700
C1462       C  0.81499289  0.20024632  0.30644472     0.07400
C1463       C  0.84322218  0.20689077  0.29156796    -0.14700
C1464       C  0.87232680  0.21126474  0.30502185    -0.14700
C1465       C  0.87394212  0.20941736  0.33357146     0.07400
C1466       C  0.84562466  0.20517157  0.34861190    -0.14700
H1467       H  0.79506156  0.19652289  0.34725287     0.11400
H1468       H  0.84373496  0.20799841  0.26960723     0.11400
H1469       H  0.89378680  0.21522062  0.29296362     0.11400
H1470       H  0.84615854  0.20422971  0.37071130     0.11400
C1471       C  0.71184562  0.10855223  0.32124210    -0.14700
C1472       C  0.73297797  0.11353400  0.29937301     0.07400
C1473       C  0.74570490  0.08718850  0.28551675    -0.14700
C1474       C  0.73834278  0.05609951  0.29408708    -0.14700
C1475       C  0.71845284  0.05094565  0.31688383     0.07400
C1476       C  0.70465363  0.07745796  0.32998658    -0.14700
H1477       H  0.70208283  0.12871298  0.33226634     0.11400
H1478       H  0.76234018  0.09073965  0.26874904     0.11400
H1479       H  0.74940838  0.03616302  0.28368590     0.11400
H1480       H  0.68924323  0.07419057  0.34760717     0.11400
C1481       C  0.68766497  0.33458568  0.28346468    -0.14700
C1482       C  0.69423462  0.30815997  0.30022282     0.07400
C1483       C  0.70895411  0.31284768  0.32556483    -0.14700
C1484       C  0.71595049  0.34374085  0.33455294    -0.14700
C1485       C  0.70811758  0.37044601  0.31836929     0.07400
C1486       C  0.69468774  0.36554030  0.29241435    -0.14700
H1487       H  0.67548437  0.33141857  0.26416559     0.11400
H1488       H  0.71372601  0.29267836  0.33887225     0.11400
H1489       H  0.72627063  0.34677987  0.35465463     0.11400
H1490       H  0.68825737  0.38565838  0.27958686     0.11400
C1491       C  0.58085523  0.22018978  0.29113197    -0.14700
C1492       C  0.60945573  0.22431348  0.30608836     0.07400
C1493       C  0.60782471  0.22267235  0.33480207    -0.14700
C1494       C  0.57839607  0.21935924  0.34818163    -0.14700
C1495       C  0.54993789  0.21713272  0.33312310     0.07400
C1496       C  0.55151530  0.21668561  0.30454365    -0.14700
H1497       H  0.58022437  0.22053347  0.26917614     0.11400
H1498       H  0.62933650  0.22549939  0.34693972     0.11400
H1499       H  0.57785137  0.21933904  0.37029408     0.11400
H1500       H  0.52988888  0.21452886  0.29245010     0.11400
C1501       C  0.98471633  0.09911454  0.38267446    -0.14700
C1502       C  0.97236124  0.12169586  0.40102642     0.07400
C1503       C  0.96596131  0.11215442  0.42803800    -0.14700
C1504       C  0.97260894  0.08074421  0.43657357    -0.14700
C1505       C  0.98658137  0.05872294  0.41847458     0.07400
C1506       C  0.99182313  0.06815490  0.39128322    -0.14700
H1507       H  0.98971556  0.10559282  0.36165764     0.11400
H1508       H  0.95613977  0.12897943  0.44254558     0.11400
H1509       H  0.96781218  0.07413512  0.45749859     0.11400
H1510       H  0.50184943  0.05162680  0.37662865     0.11400
C1511       C  0.59477384  0.46570136  0.43352834    -0.14700
C1512       C  0.56608362  0.46910140  0.41854725     0.07400
C1513       C  0.56730142  0.46459347  0.39006076    -0.14700
C1514       C  0.59653256  0.45967424  0.37672570    -0.14700
C1515       C  0.62522061  0.45883079  0.39162344     0.07400
C1516       C  0.62392406  0.46066979  0.42016949    -0.14700
H1517       H  0.59572057  0.46840520  0.45534836     0.11400
H1518       H  0.54572438  0.46681970  0.37790825     0.11400
H1519       H  0.59681170  0.45796032  0.35466666     0.11400
H1520       H  0.64569692  0.45965813  0.43218064     0.11400
C1521       C  0.95887686  0.31439940  0.42851447    -0.14700
C1522       C  0.95429561  0.30635806  0.40096826     0.07400
C1523       C  0.94435848  0.33026720  0.38262667    -0.14700
C1524       C  0.93718706  0.36093430  0.39187811    -0.14700
C1525       C  0.94018170  0.36865533  0.41963902     0.07400
C1526       C  0.95226546  0.34544715  0.43768435    -0.14700
H1527       H  0.96688995  0.29655391  0.44303194     0.11400
H1528       H  0.94094672  0.32497426  0.36119637     0.11400
H1529       H  0.92853412  0.37849903  0.37736528     0.11400
H1530       H  0.95528508  0.35076509  0.45903846     0.11400
C1531       C  0.82981009  0.45847414  0.43507120    -0.14700
C1532       C  0.85876346  0.45619455  0.42022355     0.07400
C1533       C  0.85771363  0.46102222  0.39175206    -0.14700
C1534       C  0.82850643  0.46505949  0.37826709    -0.14700
C1535       C  0.79961492  0.46466987  0.39296699     0.07400
C1536       C  0.80062043  0.46262015  0.42153428    -0.14700
H1537       H  0.82877183  0.45544883  0.45689001     0.11400
H1538       H  0.87948000  0.45966568  0.37970044     0.11400
H1539       H  0.82846421  0.46706870  0.35621125     0.11400
H1540       H  0.77866322  0.46272553  0.43339163     0.11400
C1541       C  0.89006814  0.44436302  0.93278773     0.85100
C1542       C  0.89085274  0.43885686  0.96392900    -0.55100
C1543       C  0.91910134  0.42685402  0.97327955     0.08000
C1544       C  0.94436356  0.42129660  0.95079790     0.19000
C1545       C  0.91901422  0.46630647  0.92738701    -0.55800
C1546       C  0.94738500  0.45419732  0.93666559     0.08100
C1547       C  0.89944293  0.41195836  0.92053078    -0.55400
C1548       C  0.92777515  0.39977142  0.92967940     0.08700
H1549       H  0.87147558  0.44392607  0.97777231     0.13200
H1550       H  0.96748889  0.41177286  0.95856360    -0.01000
H1551       H  0.91717966  0.48951233  0.91751778     0.13500
H1552       H  0.88447404  0.39948816  0.90586176     0.13300
C1553       C  0.53501848  0.48151279  0.93115281     0.85100
C1554       C  0.53447734  0.48708990  0.96225757    -0.55100
C1555       C  0.50651973  0.99977365  0.97157533     0.08000
C1556       C  0.98124486  0.00558729  0.94933818     0.19000
C1557       C  0.50567423  0.46002339  0.92623666    -0.55800
C1558       C  0.97760758  0.47257136  0.93580701     0.08900
C1559       C  0.52613230  0.01405344  0.91868130    -0.55400
C1560       C  0.99807607  0.02681892  0.92795625     0.08700
H1561       H  0.55348706  0.48100169  0.97625277     0.13200
H1562       H  0.95833699  0.01543157  0.95726650    -0.01000
H1563       H  0.50711674  0.43657978  0.91689639     0.13500
H1564       H  0.54148449  0.02631967  0.90405306     0.13300
C1565       C  0.64122567  0.23377917  0.79292450     0.85100
C1566       C  0.64201975  0.23734362  0.76153795    -0.55100
C1567       C  0.67079729  0.24738083  0.75153296     0.08000
C1568       C  0.69643182  0.25295100  0.77341991     0.19000
C1569       C  0.66906654  0.21076489  0.79906374    -0.55800
C1570       C  0.69787034  0.22088239  0.78881864     0.08100
C1571       C  0.65236340  0.26649506  0.80352487    -0.55400
C1572       C  0.68105189  0.27647259  0.79338772     0.08700
H1573       H  0.62217379  0.23310741  0.74808300     0.13200
H1574       H  0.71988968  0.26105743  0.76505974    -0.01000
H1575       H  0.66609992  0.18815122  0.80973454     0.13500
H1576       H  0.63834922  0.28093347  0.81754881     0.13300
C1577       C  0.78386649  0.18960139  0.79310130     0.85100
C1578       C  0.78360015  0.18631802  0.76170758    -0.55100
C1579       C  0.75524882  0.17553597  0.75157220     0.08000
C1580       C  0.72937173  0.16923100  0.77336505     0.19000
C1581       C  0.75541060  0.21169976  0.79921176    -0.55800
C1582       C  0.72696440  0.20101540  0.78896138     0.08100
C1583       C  0.77357720  0.15638397  0.80353712    -0.55400
C1584       C  0.74518105  0.14581880  0.79330606     0.08700
H1585       H  0.80366622  0.19072464  0.74831921     0.13200
H1586       H  0.70621890  0.16065506  0.76486150    -0.01000
H1587       H  0.75774822  0.23432332  0.80982567     0.13500
H1588       H  0.78795041  0.14206943  0.81744133     0.13300
In1589     In  0.96199718  0.21393199  0.87128631     1.36900
C1590       C  0.51860147  0.21606857  0.84701340     0.76200
O1591       O  0.95688318  0.26652487  0.86611410    -0.62200
O1592       O  0.96216857  0.24909734  0.90658088    -0.53100
C1593       C  0.90525696  0.21101612  0.84737285     0.68900
O1594       O  0.93104923  0.21517995  0.83435571    -0.48000
C1595       C  0.96722708  0.15486491  0.89140465     0.73600
O1596       O  0.99266069  0.21290460  0.83407901    -0.59900
O1597       O  0.96199111  0.17852217  0.90683910    -0.50000
O1598       O  0.51549538  0.21859687  0.87257956    -0.56300
C1599       C  0.95822401  0.27311207  0.89113886     0.83800
O1600       O  0.90853312  0.20797648  0.87288886    -0.58200
O1601       O  0.96877016  0.16177431  0.86640501    -0.61500
In1602     In  0.71284590  0.46088587  0.85232665     1.36900
C1603       C  0.71470672  0.01843324  0.82856155     0.76200
O1604       O  0.65910800  0.45853527  0.85182129    -0.62200
O1605       O  0.68283340  0.45946969  0.89018930    -0.53100
C1606       C  0.71128939  0.40298093  0.82967460     0.68900
O1607       O  0.70374223  0.42795760  0.81666397    -0.48000
C1608       C  0.76860246  0.46405982  0.87846513     0.73600
O1609       O  0.72500495  0.49358018  0.81699619    -0.59900
O1610       O  0.74197977  0.46349055  0.89075154    -0.50000
O1611       O  0.70226419  0.01348401  0.85164432    -0.56300
C1612       C  0.65650842  0.45852986  0.87751073     0.83800
O1613       O  0.72059159  0.40796159  0.85373326    -0.58200
O1614       O  0.76657693  0.46306969  0.85278967    -0.61500
C1615       C  0.94269760  0.39154520  0.54295567     0.85100
C1616       C  0.93635738  0.39241947  0.51192787    -0.55100
C1617       C  0.92494829  0.42083981  0.50260955     0.08000
C1618       C  0.92057351  0.44614957  0.52499602     0.19000
C1619       C  0.96563201  0.41978547  0.54759704    -0.55800
C1620       C  0.95401274  0.44829420  0.53825191     0.08100
C1621       C  0.91078473  0.40177519  0.55588969    -0.55400
C1622       C  0.89910665  0.43026854  0.54676369     0.08700
H1623       H  0.94053667  0.37304421  0.49803965     0.13200
H1624       H  0.91146051  0.46939915  0.51725020    -0.01000
H1625       H  0.98920815  0.41734550  0.55677838     0.13500
H1626       H  0.89817251  0.38718826  0.57086431     0.13300
C1627       C  0.98548306  0.03429915  0.54181182     0.85100
C1628       C  0.99008707  0.03383250  0.51053734    -0.55100
C1629       C  0.50071403  0.00535452  0.50079339     0.08000
C1630       C  0.50602938  0.47975495  0.52283766     0.19000
C1631       C  0.96266565  0.00615657  0.54749640    -0.55800
C1632       C  0.97348418  0.47768257  0.53764852     0.08100
C1633       C  0.51820770  0.02372149  0.55318809    -0.55400
C1634       C  0.52890200  0.49535098  0.54329911     0.08700
H1635       H  0.98630788  0.05378423  0.49696835     0.13200
H1636       H  0.51465579  0.45656093  0.51469533    -0.01000
H1637       H  0.93973755  0.00864062  0.55783975     0.13500
H1638       H  0.53203951  0.03777528  0.56761386     0.13300
C1639       C  0.73324526  0.13936455  0.68235052     0.85100
C1640       C  0.73888235  0.14047144  0.71344761    -0.55100
C1641       C  0.75066275  0.16891838  0.72234243     0.08000
C1642       C  0.75604136  0.19384657  0.69964556     0.19000
C1643       C  0.71087155  0.16785254  0.67700314    -0.55800
C1644       C  0.72289465  0.19630833  0.68595487     0.08100
C1645       C  0.76556377  0.14898543  0.66962648    -0.55400
C1646       C  0.77759060  0.17741304  0.67842655     0.08700
H1647       H  0.73322974  0.12153732  0.72776989     0.13200
H1648       H  0.76544745  0.21704598  0.70716487    -0.01000
H1649       H  0.68737138  0.16561831  0.66764826     0.13500
H1650       H  0.77809684  0.13412378  0.65493332     0.13300
C1651       C  0.69395639  0.28302193  0.68209584     0.85100
C1652       C  0.68860824  0.28168056  0.71322326    -0.55100
C1653       C  0.67635234  0.25346387  0.72230493     0.08000
C1654       C  0.67092939  0.22858114  0.69981428     0.19000
C1655       C  0.71615086  0.25444802  0.67667451    -0.55800
C1656       C  0.70403494  0.22600226  0.68588695     0.08100
C1657       C  0.66152663  0.27353330  0.66956604    -0.55400
C1658       C  0.64942935  0.24518799  0.67870519     0.08700
H1659       H  0.69493780  0.30029094  0.72742928     0.13200
H1660       H  0.66134475  0.20544100  0.70750578    -0.01000
H1661       H  0.73961437  0.25660403  0.66716023     0.13500
H1662       H  0.64897515  0.28832540  0.65476707     0.13300
In1663     In  0.71260908  0.46200188  0.60500267     1.36900
C1664       C  0.71320182  0.40553556  0.62955577     0.76200
O1665       O  0.65926988  0.45748337  0.60664361    -0.62200
O1666       O  0.68036382  0.46714308  0.56806437    -0.53100
C1667       C  0.71098960  0.01818890  0.62959323     0.68900
O1668       O  0.70965818  0.49206465  0.64239403    -0.48000
C1669       C  0.77229820  0.46064279  0.58544356     0.73600
O1670       O  0.71237330  0.43156073  0.64242345    -0.59900
O1671       O  0.74811930  0.46066525  0.56988345    -0.50000
O1672       O  0.71339377  0.40841110  0.60385360    -0.56300
C1673       C  0.65485095  0.46329291  0.58168796     0.83800
O1674       O  0.71281671  0.01555584  0.60399977    -0.58200
O1675       O  0.76566227  0.46222493  0.61048012    -0.61500
In1676     In  0.96386625  0.21217706  0.61900535     1.36900
C1677       C  0.96410820  0.15569792  0.59501108     0.76200
O1678       O  0.51703065  0.21233696  0.61440918    -0.62200
O1679       O  0.99832913  0.21356953  0.65474230    -0.53100
C1680       C  0.96426287  0.26924032  0.59543485     0.68900
O1681       O  0.96647376  0.24352998  0.58225280    -0.48000
C1682       C  0.90446855  0.20890367  0.63920474     0.73600
O1683       O  0.96119528  0.18155749  0.58193824    -0.59900
O1684       O  0.92877994  0.21080319  0.65457972    -0.50000
O1685       O  0.96696665  0.15881786  0.62053884    -0.56300
C1686       C  0.52296136  0.21398581  0.63956859     0.83800
O1687       O  0.96185417  0.26576731  0.62097697    -0.58200
O1688       O  0.91084820  0.20969559  0.61407837    -0.61500
C1689       C  0.71192548  0.31639826  0.64189201    -0.14700
C1690       C  0.70544285  0.31469341  0.67009752     0.07400
C1691       C  0.70503419  0.34342209  0.68509678    -0.14700
C1692       C  0.70894902  0.37279739  0.67197061    -0.14700
C1693       C  0.71315926  0.37433232  0.64360001     0.07400
C1694       C  0.71563866  0.34587576  0.62876765    -0.14700
H1695       H  0.71225072  0.29487069  0.62970133     0.11400
H1696       H  0.69980356  0.34412818  0.70661748     0.11400
H1697       H  0.70716729  0.39443843  0.68393219     0.11400
H1698       H  0.71923848  0.34641923  0.60686544     0.11400
C1699       C  0.61192988  0.23146484  0.64081633    -0.14700
C1700       C  0.61823649  0.23264095  0.66891438     0.07400
C1701       C  0.59366760  0.22467825  0.68736756    -0.14700
C1702       C  0.56274481  0.21756759  0.67796104    -0.14700
C1703       C  0.55612321  0.21768138  0.64986336     0.07400
C1704       C  0.58128558  0.22374657  0.63137022    -0.14700
H1705       H  0.63057603  0.23731586  0.62617979     0.11400
H1706       H  0.59783591  0.22549518  0.70902959     0.11400
H1707       H  0.54385479  0.21288890  0.69265705     0.11400
H1708       H  0.57698336  0.22387358  0.60956966     0.11400
C1709       C  0.81651882  0.18710447  0.64036143    -0.14700
C1710       C  0.80873771  0.19003497  0.66815364     0.07400
C1711       C  0.83193882  0.20219368  0.68612614    -0.14700
C1712       C  0.86308261  0.20907048  0.67680910    -0.14700
C1713       C  0.87117395  0.20469954  0.64921389     0.07400
C1714       C  0.84727631  0.19456167  0.63097266    -0.14700
H1715       H  0.79895346  0.17827216  0.62595157     0.11400
H1716       H  0.82654045  0.20491756  0.70754708     0.11400
H1717       H  0.88096586  0.21715091  0.69124391     0.11400
H1718       H  0.85268472  0.19116489  0.60954223     0.11400
C1719       C  0.72002958  0.07932998  0.68522142    -0.14700
C1720       C  0.72156394  0.10807011  0.67015611     0.07400
C1721       C  0.71596488  0.10689998  0.64181090    -0.14700
C1722       C  0.71124790  0.07777871  0.62864035    -0.14700
C1723       C  0.71166599  0.04918564  0.64359651     0.07400
C1724       C  0.71503504  0.05028711  0.67204258    -0.14700
H1725       H  0.72421806  0.07836483  0.70689924     0.11400
H1726       H  0.71702140  0.12851972  0.62960832     0.11400
H1727       H  0.70844616  0.07755836  0.60665726     0.11400
H1728       H  0.71531368  0.02849292  0.68404096     0.11400
C1729       C  0.58702414  0.48603259  0.53401738    -0.14700
C1730       C  0.56034527  0.48224233  0.55123003     0.07400
C1731       C  0.56456577  0.46964216  0.57749372    -0.14700
C1732       C  0.59525247  0.46190348  0.58682478    -0.14700
C1733       C  0.62228714  0.46691098  0.57009823     0.07400
C1734       C  0.61781934  0.47831660  0.54334326    -0.14700
H1735       H  0.58427187  0.49654896  0.51394446     0.11400
H1736       H  0.54422151  0.46690999  0.59110429     0.11400
H1737       H  0.59793856  0.45318893  0.60754594     0.11400
H1738       H  0.63821719  0.48266175  0.53010825     0.11400
C1739       C  0.47319653  0.06714527  0.58348603    -0.14700
C1740       C  0.97463175  0.06548863  0.55478348     0.07400
C1741       C  0.96836190  0.09349736  0.53961649    -0.14700
C1742       C  0.96371857  0.12261243  0.55281366    -0.14700
C1743       C  0.96501761  0.12442907  0.58137257     0.07400
C1744       C  0.96875376  0.09630882  0.59663892    -0.14700
H1745       H  0.47724548  0.04596713  0.59578273     0.11400
H1746       H  0.96775313  0.09378351  0.51762870     0.11400
H1747       H  0.96016387  0.14392361  0.54057912     0.11400
H1748       H  0.46930750  0.09698520  0.61874118     0.11400
C1749       C  0.84508440  0.45555730  0.53897071    -0.14700
C1750       C  0.86816305  0.44318733  0.55698535     0.07400
C1751       C  0.86031642  0.44010803  0.58477625    -0.14700
C1752       C  0.82954627  0.44739856  0.59407165    -0.14700
C1753       C  0.80571222  0.45738284  0.57570995     0.07400
C1754       C  0.81390523  0.46214020  0.54816186    -0.14700
H1755       H  0.85054595  0.45862618  0.51760325     0.11400
H1756       H  0.87779621  0.43117501  0.59924087     0.11400
H1757       H  0.82401159  0.44375685  0.61547634     0.11400
H1758       H  0.79605233  0.47020848  0.53366109     0.11400
C1759       C  0.95907956  0.35839877  0.58379809    -0.14700
C1760       C  0.95407697  0.36005100  0.55535661     0.07400
C1761       C  0.95629017  0.33155746  0.54019567    -0.14700
C1762       C  0.96094211  0.30231279  0.55329217    -0.14700
C1763       C  0.96349355  0.30064858  0.58177969     0.07400
C1764       C  0.96350359  0.32900677  0.59690742    -0.14700
H1765       H  0.95778583  0.37982432  0.59608009     0.11400
H1766       H  0.95317616  0.33086495  0.51840639     0.11400
H1767       H  0.96120476  0.28077205  0.54111036     0.11400
H1768       H  0.96585729  0.32838740  0.61892543     0.11400
C1769       C  0.81644281  0.20090919  0.83522805    -0.14700
C1770       C  0.81500197  0.20023354  0.80649264     0.07400
C1771       C  0.84322673  0.20689072  0.79161291    -0.14700
C1772       C  0.87233188  0.21126805  0.80506351    -0.14700
C1773       C  0.87395073  0.20941340  0.83361208     0.07400
C1774       C  0.84563683  0.20516203  0.84865582    -0.14700
H1775       H  0.79507657  0.19649964  0.84730186     0.11400
H1776       H  0.84373747  0.20800431  0.76965269     0.11400
H1777       H  0.89378951  0.21523003  0.79300351     0.11400
H1778       H  0.84617445  0.20421572  0.87075500     0.11400
C1779       C  0.71187730  0.10851041  0.82128284    -0.14700
C1780       C  0.73300921  0.11349470  0.79941403     0.07400
C1781       C  0.74572099  0.08715181  0.78554432    -0.14700
C1782       C  0.73834405  0.05606126  0.79410117    -0.14700
C1783       C  0.71845497  0.05090385  0.81689782     0.07400
C1784       C  0.70467084  0.07741478  0.83001392    -0.14700
H1785       H  0.70212380  0.12866923  0.83231548     0.11400
H1786       H  0.76235384  0.09070516  0.76877514     0.11400
H1787       H  0.74939819  0.03612548  0.78369022     0.11400
H1788       H  0.68926144  0.07414449  0.84763471     0.11400
C1789       C  0.68766146  0.33452518  0.78348643    -0.14700
C1790       C  0.69423390  0.30810338  0.80024756     0.07400
C1791       C  0.70895513  0.31279535  0.82558820    -0.14700
C1792       C  0.71595036  0.34369035  0.83457195    -0.14700
C1793       C  0.70811446  0.37039177  0.81838467     0.07400
C1794       C  0.69468380  0.36548099  0.79243111    -0.14700
H1795       H  0.67547721  0.33135472  0.76418965     0.11400
H1796       H  0.71372851  0.29262836  0.83889802     0.11400
H1797       H  0.72627088  0.34673384  0.85467292     0.11400
H1798       H  0.68825156  0.38559616  0.77960114     0.11400
C1799       C  0.58086849  0.22008516  0.79117227    -0.14700
C1800       C  0.60946176  0.22425363  0.80612922     0.07400
C1801       C  0.60782586  0.22265298  0.83484412    -0.14700
C1802       C  0.57839703  0.21934275  0.84822246    -0.14700
C1803       C  0.54994393  0.21707503  0.83316203     0.07400
C1804       C  0.55152749  0.21658361  0.80458323    -0.14700
H1805       H  0.58024537  0.22038620  0.76921580     0.11400
H1806       H  0.62933312  0.22551154  0.84698225     0.11400
H1807       H  0.57784786  0.21935796  0.87033461     0.11400
H1808       H  0.52990529  0.21439132  0.79248902     0.11400
C1809       C  0.98466051  0.09907530  0.88268892    -0.14700
C1810       C  0.97232531  0.12165866  0.90104834     0.07400
C1811       C  0.96594459  0.11212136  0.92806384    -0.14700
C1812       C  0.97259465  0.08071179  0.93659614    -0.14700
C1813       C  0.98655209  0.05869053  0.91848957     0.07400
C1814       C  0.99177228  0.06811716  0.89129493    -0.14700
H1815       H  0.98964494  0.10555209  0.86166918     0.11400
H1816       H  0.95613863  0.12894921  0.94257661     0.11400
H1817       H  0.96781463  0.07410366  0.95752408     0.11400
H1818       H  0.50179688  0.05159415  0.87663559     0.11400
C1819       C  0.59478665  0.46573800  0.93354604    -0.14700
C1820       C  0.56609358  0.46911325  0.91856425     0.07400
C1821       C  0.56731178  0.46459165  0.89007985    -0.14700
C1822       C  0.59654182  0.45966431  0.87674666    -0.14700
C1823       C  0.62523049  0.45882846  0.89164348     0.07400
C1824       C  0.62393705  0.46069744  0.92018837    -0.14700
H1825       H  0.59573373  0.46846625  0.95536325     0.11400
H1826       H  0.54573403  0.46680600  0.87792681     0.11400
H1827       H  0.59681890  0.45793270  0.85468889     0.11400
H1828       H  0.64571137  0.45969999  0.93219830     0.11400
C1829       C  0.95884010  0.31434501  0.92855348    -0.14700
C1830       C  0.95430250  0.30631024  0.90100100     0.07400
C1831       C  0.94440413  0.33022463  0.88264924    -0.14700
C1832       C  0.93723048  0.36089318  0.89189411    -0.14700
C1833       C  0.94018548  0.36860974  0.91965845     0.07400
C1834       C  0.95222776  0.34539440  0.93771716    -0.14700
H1835       H  0.96682016  0.29649399  0.94307959     0.11400
H1836       H  0.94102482  0.32493555  0.86121448     0.11400
H1837       H  0.92860671  0.37846301  0.87737321     0.11400
H1838       H  0.95521498  0.35070835  0.95907433     0.11400
C1839       C  0.82982128  0.45844452  0.93503701    -0.14700
C1840       C  0.85877353  0.45615267  0.92018980     0.07400
C1841       C  0.85772380  0.46096260  0.89171597    -0.14700
C1842       C  0.82851606  0.46499820  0.87823050    -0.14700
C1843       C  0.79962616  0.46462342  0.89293326     0.07400
C1844       C  0.80063314  0.46258769  0.92150042    -0.14700
H1845       H  0.82878049  0.45543212  0.95685663     0.11400
H1846       H  0.87948967  0.45959508  0.87966461     0.11400
H1847       H  0.82847159  0.46699478  0.85617396     0.11400
H1848       H  0.77867732  0.46270358  0.93335943     0.11400
C1849       C  0.89005817  0.94440342  0.43281171     0.85100
C1850       C  0.89085423  0.93887543  0.46394985    -0.55100
C1851       C  0.91910864  0.92686839  0.47328695     0.08000
C1852       C  0.94436214  0.92132830  0.45079471     0.19000
C1853       C  0.91900094  0.96635279  0.42741424    -0.55800
C1854       C  0.94737611  0.95423908  0.43667757     0.08100
C1855       C  0.89943040  0.91200716  0.42053646    -0.55400
C1856       C  0.92776719  0.89981518  0.42967023     0.08700
H1857       H  0.87148011  0.94393572  0.47779912     0.13200
H1858       H  0.96749146  0.91180185  0.45854913    -0.01000
H1859       H  0.91716198  0.98956308  0.41755318     0.13500
H1860       H  0.88445415  0.89954511  0.40586798     0.13300
C1861       C  0.53501593  0.98151382  0.43113860     0.85100
C1862       C  0.53448842  0.98709666  0.46224303    -0.55100
C1863       C  0.50654435  0.49979770  0.47157226     0.08000
C1864       C  0.98126062  0.50561901  0.44934613     0.19000
C1865       C  0.50565979  0.96003963  0.42623180    -0.55800
C1866       C  0.97760318  0.97260645  0.43580264     0.08900
C1867       C  0.52614385  0.51406662  0.41867205    -0.55400
C1868       C  0.99809046  0.52684502  0.42795668     0.08700
H1869       H  0.55350092  0.98100440  0.47623308     0.13200
H1870       H  0.95835959  0.51547151  0.45728106    -0.01000
H1871       H  0.50708790  0.93659367  0.41689398     0.13500
H1872       H  0.54149793  0.52632476  0.40404053     0.13300
C1873       C  0.64121827  0.73383968  0.29288261     0.85100
C1874       C  0.64201291  0.73741225  0.26149691    -0.55100
C1875       C  0.67079111  0.74744819  0.25149315     0.08000
C1876       C  0.69642635  0.75301055  0.27338015     0.19000
C1877       C  0.66905672  0.71081895  0.29901440    -0.55800
C1878       C  0.69786178  0.72093599  0.28877051     0.08100
C1879       C  0.65236127  0.76654979  0.30349113    -0.55400
C1880       C  0.68104948  0.77652857  0.29335339     0.08700
H1881       H  0.62217018  0.73317083  0.24804039     0.13200
H1882       H  0.71988475  0.76111659  0.26502074    -0.01000
H1883       H  0.66608755  0.68820156  0.30967900     0.13500
H1884       H  0.63834960  0.78098430  0.31751969     0.13300
C1885       C  0.78385306  0.68963643  0.29304989     0.85100
C1886       C  0.78358740  0.68634471  0.26165554    -0.55100
C1887       C  0.75523225  0.67556671  0.25152127     0.08000
C1888       C  0.72935300  0.66927496  0.27331585     0.19000
C1889       C  0.75540283  0.71174384  0.29915514    -0.55800
C1890       C  0.72695382  0.70106464  0.28890657     0.08100
C1891       C  0.77355427  0.65642485  0.30349087    -0.55400
C1892       C  0.74515627  0.64586380  0.29326166     0.08700
H1893       H  0.80365656  0.69074338  0.24826680     0.13200
H1894       H  0.70619783  0.66070266  0.26481407    -0.01000
H1895       H  0.75774570  0.73436790  0.30976761     0.13500
H1896       H  0.78792393  0.64210939  0.31739717     0.13300
In1897     In  0.96198847  0.71396771  0.37125514     1.36900
C1898       C  0.51859286  0.71612718  0.34697633     0.76200
O1899       O  0.95685377  0.76656431  0.36608061    -0.62200
O1900       O  0.96216476  0.74914351  0.40654566    -0.53100
C1901       C  0.90524552  0.71103128  0.34733723     0.68900
O1902       O  0.93103834  0.71520294  0.33432278    -0.48000
C1903       C  0.96724451  0.65489800  0.39138204     0.73600
O1904       O  0.99265071  0.71294889  0.33404544    -0.59900
O1905       O  0.96197935  0.67855438  0.40681061    -0.50000
O1906       O  0.51548894  0.71865168  0.37254300    -0.56300
C1907       C  0.95820672  0.77315641  0.39110396     0.83800
O1908       O  0.90852178  0.70799118  0.37285335    -0.58200
O1909       O  0.96880645  0.66180866  0.36638330    -0.61500
In1910     In  0.71284701  0.96092700  0.35232786     1.36900
C1911       C  0.71471359  0.51848522  0.32855597     0.76200
O1912       O  0.65910808  0.95855677  0.35180589    -0.62200
O1913       O  0.68281924  0.95950064  0.39017988    -0.53100
C1914       C  0.71129527  0.90302767  0.32966339     0.68900
O1915       O  0.70376721  0.92800973  0.31665248    -0.48000
C1916       C  0.76859111  0.96410005  0.37849192     0.73600
O1917       O  0.72502684  0.99361925  0.31700110    -0.59900
O1918       O  0.74196209  0.96353927  0.39076835    -0.50000
O1919       O  0.70225985  0.51353760  0.35163470    -0.56300
C1920       C  0.65649934  0.95854538  0.37749465     0.83800
O1921       O  0.72057865  0.90800015  0.35372872    -0.58200
O1922       O  0.76657712  0.96309945  0.35281620    -0.61500
C1923       C  0.94263130  0.89153561  0.04294791     0.85100
C1924       C  0.93631337  0.89241447  0.01191859    -0.55100
C1925       C  0.92492579  0.92083955  0.00259513     0.08000
C1926       C  0.92054306  0.94615062  0.02498011     0.19000
C1927       C  0.96557287  0.91976683  0.04760426    -0.55800
C1928       C  0.95397102  0.94828108  0.03825561     0.08100
C1929       C  0.91071320  0.90177666  0.05586588    -0.55400
C1930       C  0.89905636  0.93027722  0.04673709     0.08700
H1931       H  0.94048409  0.87303577  0.99803344     0.13200
H1932       H  0.91144459  0.96940431  0.01723074    -0.01000
H1933       H  0.98914256  0.91731646  0.05679576     0.13500
H1934       H  0.89808570  0.88719707  0.07083654     0.13300
C1935       C  0.98548432  0.53425838  0.04183448     0.85100
C1936       C  0.99006887  0.53379691  0.01055732    -0.55100
C1937       C  0.50067593  0.50531867  0.00079795     0.08000
C1938       C  0.50598604  0.97971243  0.02282956     0.19000
C1939       C  0.96265438  0.50612657  0.04752561    -0.55800
C1940       C  0.97345773  0.97765785  0.03765498     0.08100
C1941       C  0.51822072  0.52366540  0.05318143    -0.55400
C1942       C  0.52888152  0.99529148  0.04327817     0.08700
H1943       H  0.98631033  0.55375817  0.99699465     0.13200
H1944       H  0.51459479  0.95651612  0.01467819    -0.01000
H1945       H  0.93973437  0.50862049  0.05788017     0.13500
H1946       H  0.53207787  0.53771024  0.06759590     0.13300
C1947       C  0.73319853  0.63939959  0.18230070     0.85100
C1948       C  0.73884613  0.64050351  0.21339741    -0.55100
C1949       C  0.75063961  0.66894685  0.22229101     0.08000
C1950       C  0.75601824  0.69387360  0.19959280     0.19000
C1951       C  0.71083345  0.66789535  0.17695904    -0.55800
C1952       C  0.72286816  0.69634652  0.18590949     0.08100
C1953       C  0.76551689  0.64900948  0.16957141    -0.55400
C1954       C  0.77755688  0.67743390  0.17836873     0.08700
H1955       H  0.73319093  0.62157037  0.22772001     0.13200
H1956       H  0.76543186  0.71707059  0.20711073    -0.01000
H1957       H  0.68733007  0.66566961  0.16760845     0.13500
H1958       H  0.77804068  0.63413951  0.15487908     0.13300
C1959       C  0.69395621  0.78306887  0.18205074     0.85100
C1960       C  0.68861473  0.78173320  0.21317926    -0.55100
C1961       C  0.67635077  0.75352217  0.22226485     0.08000
C1962       C  0.67091635  0.72863774  0.19977761     0.19000
C1963       C  0.71614064  0.75448782  0.17662787    -0.55800
C1964       C  0.70401826  0.72604694  0.18584499     0.08100
C1965       C  0.66152072  0.77358918  0.16952729    -0.55400
C1966       C  0.64941653  0.74524890  0.17867101     0.08700
H1967       H  0.69495088  0.80034365  0.22738334     0.13200
H1968       H  0.66132642  0.70550139  0.20747257    -0.01000
H1969       H  0.73960214  0.75663550  0.16710855     0.13500
H1970       H  0.64897081  0.78838359  0.15472906     0.13300
In1971     In  0.71257425  0.96203731  0.10495434     1.36900
C1972       C  0.71319601  0.90557354  0.12950288     0.76200
O1973       O  0.65924550  0.95740281  0.10656074    -0.62200
O1974       O  0.68035048  0.96719906  0.06800959    -0.53100
C1975       C  0.71090226  0.51823161  0.12954110     0.68900
O1976       O  0.70954234  0.99210449  0.14234022    -0.48000
C1977       C  0.77226847  0.96069120  0.08541502     0.73600
O1978       O  0.71235263  0.93159788  0.14237222    -0.59900
O1979       O  0.74809503  0.96070968  0.06984909    -0.50000
O1980       O  0.71339361  0.90844906  0.10380054    -0.56300
C1981       C  0.65483590  0.96326321  0.08161266     0.83800
O1982       O  0.71277411  0.51559384  0.10395059    -0.58200
O1983       O  0.76562534  0.96226997  0.11045070    -0.61500
In1984     In  0.96385701  0.71216995  0.11899034     1.36900
C1985       C  0.96413774  0.65567530  0.09502578     0.76200
O1986       O  0.51701196  0.71241057  0.11439119    -0.62200
O1987       O  0.99832417  0.71354068  0.15472547    -0.53100
C1988       C  0.96421097  0.76922432  0.09541287     0.68900
O1989       O  0.96645166  0.74351575  0.08223122    -0.48000
C1990       C  0.90445105  0.70890322  0.13916677     0.73600
O1991       O  0.96121681  0.68152591  0.08194100    -0.59900
O1992       O  0.92874881  0.71087349  0.15455143    -0.50000
O1993       O  0.96698562  0.65881104  0.12055329    -0.56300
C1994       C  0.52294688  0.71401530  0.13955194     0.83800
O1995       O  0.96179469  0.76575138  0.12095426    -0.58200
O1996       O  0.91084929  0.70961573  0.11404231    -0.61500
C1997       C  0.71192597  0.81643691  0.14184186    -0.14700
C1998       C  0.70544738  0.81473560  0.17004832     0.07400
C1999       C  0.70504020  0.84346554  0.18504527    -0.14700
C2000       C  0.70895332  0.87283868  0.17191705    -0.14700
C2001       C  0.71316003  0.87437090  0.14354643     0.07400
C2002       C  0.71563706  0.84591329  0.12871497    -0.14700
H2003       H  0.71224803  0.79490801  0.12965274     0.11400
H2004       H  0.69981025  0.84417504  0.20656573     0.11400
H2005       H  0.70717193  0.89448051  0.18387756     0.11400
H2006       H  0.71923211  0.84645519  0.10681214     0.11400
C2007       C  0.61190333  0.73154874  0.14078736    -0.14700
C2008       C  0.61821960  0.73270828  0.16888415     0.07400
C2009       C  0.59365964  0.72472605  0.18734014    -0.14700
C2010       C  0.56273708  0.71760665  0.17793839    -0.14700
C2011       C  0.55610732  0.71773152  0.14984238     0.07400
C2012       C  0.58125986  0.72382278  0.13134581    -0.14700
H2013       H  0.63054210  0.73741439  0.12614837     0.11400
H2014       H  0.59783488  0.72552921  0.20900118     0.11400
H2015       H  0.54385411  0.71290974  0.19263693     0.11400
H2016       H  0.57695125  0.72395923  0.10954612     0.11400
C2017       C  0.81652120  0.68703707  0.14031222    -0.14700
C2018       C  0.80870854  0.69004550  0.16809213     0.07400
C2019       C  0.83188011  0.70228555  0.18605312    -0.14700
C2020       C  0.86302749  0.70916150  0.17674249    -0.14700
C2021       C  0.87115127  0.70470574  0.14916426     0.07400
C2022       C  0.84728121  0.69448973  0.13092962    -0.14700
H2023       H  0.79897881  0.67814977  0.12590706     0.11400
H2024       H  0.82645672  0.70507624  0.20746366     0.11400
H2025       H  0.88088861  0.71730683  0.19117043     0.11400
H2026       H  0.85271353  0.69102975  0.10951107     0.11400
C2027       C  0.71996011  0.57936972  0.18516839    -0.14700
C2028       C  0.72150143  0.60811026  0.17010483     0.07400
C2029       C  0.71589237  0.60694384  0.14176030    -0.14700
C2030       C  0.71116124  0.57782432  0.12858871    -0.14700
C2031       C  0.71157369  0.54922989  0.14354363     0.07400
C2032       C  0.71494958  0.55032963  0.17198914    -0.14700
H2033       H  0.72415615  0.57840190  0.20684497     0.11400
H2034       H  0.71695326  0.62856417  0.12955866     0.11400
H2035       H  0.70835526  0.57760555  0.10660595     0.11400
H2036       H  0.71522659  0.52853468  0.18398649     0.11400
C2037       C  0.58701397  0.98610369  0.03398626    -0.14700
C2038       C  0.56032947  0.98217325  0.05116890     0.07400
C2039       C  0.56454549  0.96942851  0.07738162    -0.14700
C2040       C  0.59523791  0.96169661  0.08670125    -0.14700
C2041       C  0.62227715  0.96685075  0.07001218     0.07400
C2042       C  0.61781303  0.97838868  0.04329822    -0.14700
H2043       H  0.58425862  0.99672814  0.01395288     0.11400
H2044       H  0.54419364  0.96658715  0.09096811     0.11400
H2045       H  0.59792324  0.95287633  0.10739041     0.11400
H2046       H  0.63821455  0.98284618  0.03009439     0.11400
C2047       C  0.47326921  0.56712107  0.08351203    -0.14700
C2048       C  0.97465989  0.56545322  0.05481372     0.07400
C2049       C  0.96836827  0.59345657  0.03964661    -0.14700
C2050       C  0.96373439  0.62257405  0.05284055    -0.14700
C2051       C  0.96506146  0.62440056  0.08139768     0.07400
C2052       C  0.96882741  0.59628683  0.09666788    -0.14700
H2053       H  0.47733196  0.54594526  0.09580836     0.11400
H2054       H  0.96772564  0.59373562  0.01765973     0.11400
H2055       H  0.96015658  0.64387923  0.04060333     0.11400
H2056       H  0.46940713  0.59696862  0.11876608     0.11400
C2057       C  0.84504384  0.95557556  0.03893927    -0.14700
C2058       C  0.86812440  0.94321897  0.05695771     0.07400
C2059       C  0.86028827  0.94016995  0.08475299    -0.14700
C2060       C  0.82952172  0.94747216  0.09405021    -0.14700
C2061       C  0.80568338  0.95743766  0.07568518     0.07400
C2062       C  0.81386938  0.96217124  0.04813274    -0.14700
H2063       H  0.85049854  0.95861840  0.01756774     0.11400
H2064       H  0.87777190  0.93124646  0.09921871     0.11400
H2065       H  0.82399198  0.94384965  0.11545805     0.11400
H2066       H  0.79601250  0.97022443  0.03362955     0.11400
C2067       C  0.95895915  0.85837685  0.08379441    -0.14700
C2068       C  0.95399420  0.86003724  0.05534927     0.07400
C2069       C  0.95624555  0.83155138  0.04018092    -0.14700
C2070       C  0.96090219  0.80230453  0.05327266    -0.14700
C2071       C  0.96342199  0.80063259  0.08176176     0.07400
C2072       C  0.96338804  0.82898398  0.09689808    -0.14700
H2073       H  0.95763712  0.87979656  0.09608170     0.11400
H2074       H  0.95316743  0.83086636  0.01838758     0.11400
H2075       H  0.96119947  0.78076857  0.04108523     0.11400
H2076       H  0.96571540  0.82835827  0.11891805     0.11400
C2077       C  0.81642793  0.70093407  0.33518179    -0.14700
C2078       C  0.81498981  0.70026091  0.30644564     0.07400
C2079       C  0.84321832  0.70691035  0.29156954    -0.14700
C2080       C  0.87232331  0.71128032  0.30502370    -0.14700
C2081       C  0.87393928  0.70942486  0.33357293     0.07400
C2082       C  0.84562192  0.70517745  0.34861316    -0.14700
H2083       H  0.79505877  0.69652974  0.34725346     0.11400
H2084       H  0.84373022  0.70802411  0.26960900     0.11400
H2085       H  0.89378305  0.71523912  0.29296583     0.11400
H2086       H  0.84615623  0.70423023  0.37071247     0.11400
C2087       C  0.71185440  0.60856021  0.32124538    -0.14700
C2088       C  0.73298387  0.61354095  0.29937414     0.07400
C2089       C  0.74570739  0.58719514  0.28551629    -0.14700
C2090       C  0.73834380  0.55610651  0.29408639    -0.14700
C2091       C  0.71845568  0.55095336  0.31688440     0.07400
C2092       C  0.70466073  0.57746629  0.32998953    -0.14700
H2093       H  0.70209446  0.62872147  0.33227094     0.11400
H2094       H  0.76234073  0.59074563  0.26874703     0.11400
H2095       H  0.74940653  0.53616957  0.28368372     0.11400
H2096       H  0.68925232  0.57419950  0.34761143     0.11400
C2097       C  0.68766698  0.83458406  0.28345981    -0.14700
C2098       C  0.69423401  0.80815778  0.30021787     0.07400
C2099       C  0.70895342  0.81284338  0.32556009    -0.14700
C2100       C  0.71595079  0.84373569  0.33454928    -0.14700
C2101       C  0.70811909  0.87044164  0.31836622     0.07400
C2102       C  0.69469089  0.86553779  0.29241046    -0.14700
H2103       H  0.67548682  0.83141831  0.26416041     0.11400
H2104       H  0.71372383  0.79267324  0.33886703     0.11400
H2105       H  0.72627003  0.84677351  0.35465139     0.11400
H2106       H  0.68826196  0.88565658  0.27958337     0.11400
C2107       C  0.58084793  0.72020504  0.29112901    -0.14700
C2108       C  0.60945097  0.72431676  0.30608437     0.07400
C2109       C  0.60782186  0.72266845  0.33479788    -0.14700
C2110       C  0.57839368  0.71935659  0.34817866    -0.14700
C2111       C  0.54993374  0.71713965  0.33312138     0.07400
C2112       C  0.55150856  0.71670223  0.30454173    -0.14700
H2113       H  0.58021438  0.72055851  0.26917324     0.11400
H2114       H  0.62933528  0.72548814  0.34693482     0.11400
H2115       H  0.57785086  0.71932928  0.37029105     0.11400
H2116       H  0.52988066  0.71455418  0.29244905     0.11400
C2117       C  0.98469627  0.59910629  0.38267936    -0.14700
C2118       C  0.97234911  0.62169159  0.40103165     0.07400
C2119       C  0.96595678  0.61215438  0.42804575    -0.14700
C2120       C  0.97260603  0.58074522  0.43658364    -0.14700
C2121       C  0.98657300  0.55872095  0.41848437     0.07400
C2122       C  0.99180526  0.56814789  0.39129045    -0.14700
H2123       H  0.98968914  0.60558097  0.36166062     0.11400
H2124       H  0.95614110  0.62898223  0.44255371     0.11400
H2125       H  0.96781609  0.57413964  0.45751058     0.11400
H2126       H  0.50184830  0.55162844  0.37663070     0.11400
C2127       C  0.59476790  0.96567673  0.43352677    -0.14700
C2128       C  0.56608073  0.96909444  0.41854433     0.07400
C2129       C  0.56729996  0.96459772  0.39005657    -0.14700
C2130       C  0.59653098  0.95967741  0.37672194    -0.14700
C2131       C  0.62521728  0.95881986  0.39162141     0.07400
C2132       C  0.62391829  0.96064380  0.42016820    -0.14700
H2133       H  0.59571208  0.96836593  0.45534824     0.11400
H2134       H  0.54572473  0.96683489  0.37790317     0.11400
H2135       H  0.59681179  0.95797423  0.35466230     0.11400
H2136       H  0.64568962  0.95961898  0.43218060     0.11400
C2137       C  0.95886401  0.81439872  0.42851267    -0.14700
C2138       C  0.95428508  0.80635675  0.40096640     0.07400
C2139       C  0.94434858  0.83026562  0.38262408    -0.14700
C2140       C  0.93717745  0.86093346  0.39187479    -0.14700
C2141       C  0.94017226  0.86865557  0.41963558     0.07400
C2142       C  0.95225339  0.84544694  0.43768171    -0.14700
H2143       H  0.96687577  0.79655340  0.44303096     0.11400
H2144       H  0.94093783  0.82497205  0.36119378     0.11400
H2145       H  0.92852557  0.87849811  0.37736147     0.11400
H2146       H  0.95527227  0.85076518  0.45903567     0.11400
C2147       C  0.82980670  0.95847438  0.43507192    -0.14700
C2148       C  0.85875999  0.95619936  0.42022366     0.07400
C2149       C  0.85770952  0.96102888  0.39175250    -0.14700
C2150       C  0.82850185  0.96506251  0.37826795    -0.14700
C2151       C  0.79961068  0.96466770  0.39296815     0.07400
C2152       C  0.80061645  0.96261698  0.42153534    -0.14700
H2153       H  0.82876917  0.95544671  0.45689043     0.11400
H2154       H  0.87947588  0.95967555  0.37970059     0.11400
H2155       H  0.82845917  0.96707285  0.35621226     0.11400
H2156       H  0.77865919  0.96271836  0.43339276     0.11400
C2157       C  0.89006774  0.94436832  0.93278393     0.85100
C2158       C  0.89085422  0.93886174  0.96392500    -0.55100
C2159       C  0.91910294  0.92685810  0.97327407     0.08000
C2160       C  0.94436366  0.92130051  0.95079128     0.19000
C2161       C  0.91901378  0.96631174  0.92738251    -0.55800
C2162       C  0.94738493  0.95420168  0.93665958     0.08100
C2163       C  0.89944141  0.91196400  0.92052563    -0.55400
C2164       C  0.92777376  0.89977604  0.92967298     0.08700
H2165       H  0.87147894  0.94393320  0.97776959     0.13200
H2166       H  0.96748922  0.91177617  0.95855603    -0.01000
H2167       H  0.91717901  0.98951805  0.91751406     0.13500
H2168       H  0.88447121  0.89949441  0.90585720     0.13300
C2169       C  0.53501528  0.98150805  0.93115099     0.85100
C2170       C  0.53447405  0.98708821  0.96225544    -0.55100
C2171       C  0.50652248  0.49977310  0.97157823     0.08000
C2172       C  0.98124194  0.50558440  0.94934464     0.19000
C2173       C  0.50567022  0.96001940  0.92623626    -0.55800
C2174       C  0.97760814  0.97257460  0.93580027     0.08900
C2175       C  0.52613425  0.51405892  0.91868543    -0.55400
C2176       C  0.99807047  0.52681738  0.92796215     0.08700
H2177       H  0.55348295  0.98099956  0.97625103     0.13200
H2178       H  0.95833343  0.51542690  0.95727347    -0.01000
H2179       H  0.50711177  0.93657490  0.91689741     0.13500
H2180       H  0.54148555  0.52632696  0.90405763     0.13300
C2181       C  0.64122204  0.73378175  0.79291733     0.85100
C2182       C  0.64201561  0.73734636  0.76153068    -0.55100
C2183       C  0.67079329  0.74738287  0.75152529     0.08000
C2184       C  0.69642832  0.75295190  0.77341188     0.19000
C2185       C  0.66906220  0.71076620  0.79905560    -0.55800
C2186       C  0.69786610  0.72088320  0.78881035     0.08100
C2187       C  0.65236140  0.76649666  0.80351819    -0.55400
C2188       C  0.68104982  0.77647331  0.79338038     0.08700
H2189       H  0.62216999  0.73310835  0.74807601     0.13200
H2190       H  0.71988625  0.76105770  0.76505151    -0.01000
H2191       H  0.66609540  0.68815287  0.80972701     0.13500
H2192       H  0.63834854  0.78093486  0.81754314     0.13300
C2193       C  0.78386320  0.68960743  0.79310020     0.85100
C2194       C  0.78360017  0.68632269  0.76170648    -0.55100
C2195       C  0.75525053  0.67553860  0.75156946     0.08000
C2196       C  0.72937167  0.66923298  0.77336065     0.19000
C2197       C  0.75540552  0.71170432  0.79920805    -0.55800
C2198       C  0.72696101  0.70101784  0.78895582     0.08100
C2199       C  0.77357468  0.65638997  0.80353650    -0.55400
C2200       C  0.74518018  0.64582286  0.79330388     0.08700
H2201       H  0.80366719  0.69072997  0.74831923     0.13200
H2202       H  0.70622005  0.66065543  0.76485584    -0.01000
H2203       H  0.75774080  0.73432846  0.80982156     0.13500
H2204       H  0.78794685  0.64207710  0.81744285     0.13300
In2205     In  0.96199198  0.71392993  0.87128819     1.36900
C2206       C  0.51860108  0.71607367  0.84701267     0.76200
O2207       O  0.95687417  0.76652248  0.86611325    -0.62200
O2208       O  0.96216623  0.74909888  0.90658053    -0.53100
C2209       C  0.90525154  0.71101551  0.84737508     0.68900
O2210       O  0.93104451  0.71517328  0.83435754    -0.48000
C2211       C  0.96721874  0.65486230  0.89140810     0.73600
O2212       O  0.99265571  0.71290350  0.83408039    -0.59900
O2213       O  0.96198284  0.67852020  0.90684190    -0.50000
O2214       O  0.51549661  0.71859671  0.87257937    -0.56300
C2215       C  0.95821806  0.77311213  0.89113741     0.83800
O2216       O  0.90852709  0.70797961  0.87289149    -0.58200
O2217       O  0.96876369  0.66177149  0.86640850    -0.61500
In2218     In  0.71284330  0.96088149  0.85232639     1.36900
C2219       C  0.71470767  0.51843845  0.82856356     0.76200
O2220       O  0.65910550  0.95852772  0.85182196    -0.62200
O2221       O  0.68283122  0.95946625  0.89018971    -0.53100
C2222       C  0.71128857  0.90297797  0.82967225     0.68900
O2223       O  0.70373823  0.92795478  0.81666328    -0.48000
C2224       C  0.76859912  0.96405625  0.87846551     0.73600
O2225       O  0.72500762  0.99357485  0.81699681    -0.59900
O2226       O  0.74197642  0.96348241  0.89075183    -0.50000
O2227       O  0.70226986  0.51348857  0.85164803    -0.56300
C2228       C  0.65650614  0.95852348  0.87751142     0.83800
O2229       O  0.72059284  0.90795779  0.85373044    -0.58200
O2230       O  0.76657389  0.96306958  0.85278997    -0.61500
C2231       C  0.94269967  0.89155078  0.54295158     0.85100
C2232       C  0.93635919  0.89242483  0.51192397    -0.55100
C2233       C  0.92495087  0.92084541  0.50260551     0.08000
C2234       C  0.92057672  0.94615563  0.52499186     0.19000
C2235       C  0.96563450  0.91979055  0.54759314    -0.55800
C2236       C  0.95401617  0.94829939  0.53824771     0.08100
C2237       C  0.91078655  0.90178116  0.55588493    -0.55400
C2238       C  0.89910900  0.93027516  0.54675948     0.08700
H2239       H  0.94053506  0.87304836  0.49803637     0.13200
H2240       H  0.91146457  0.96940545  0.51724588    -0.01000
H2241       H  0.98921063  0.91735003  0.55677439     0.13500
H2242       H  0.89817369  0.88719348  0.57085857     0.13300
C2243       C  0.98547806  0.53429483  0.54181959     0.85100
C2244       C  0.99008927  0.53382836  0.51054603    -0.55100
C2245       C  0.50071309  0.50535442  0.50079449     0.08000
C2246       C  0.50602771  0.97975465  0.52283684     0.19000
C2247       C  0.96265881  0.50615247  0.54750016    -0.55800
C2248       C  0.97348901  0.97768687  0.53764324     0.08100
C2249       C  0.51821106  0.52372244  0.55318769    -0.55400
C2250       C  0.52889892  0.99534989  0.54330008     0.08700
H2251       H  0.98631267  0.55377967  0.49697610     0.13200
H2252       H  0.51465422  0.95656044  0.51469494    -0.01000
H2253       H  0.93972878  0.50863663  0.55784042     0.13500
H2254       H  0.53204364  0.53777658  0.56761268     0.13300
C2255       C  0.73325191  0.63936595  0.68234736     0.85100
C2256       C  0.73888856  0.64047307  0.71344443    -0.55100
C2257       C  0.75066739  0.66892046  0.72233946     0.08000
C2258       C  0.75604513  0.69384896  0.69964262     0.19000
C2259       C  0.71087681  0.66785265  0.67699997    -0.55800
C2260       C  0.72289836  0.69630893  0.68595172     0.08100
C2261       C  0.76557000  0.64898840  0.66962333    -0.55400
C2262       C  0.77759535  0.67741659  0.67842361     0.08700
H2263       H  0.73323561  0.62153908  0.72776675     0.13200
H2264       H  0.76544999  0.71704892  0.70716199    -0.01000
H2265       H  0.68737678  0.66561729  0.66764474     0.13500
H2266       H  0.77810362  0.63412771  0.65492999     0.13300
C2267       C  0.69395541  0.78302024  0.68208711     0.85100
C2268       C  0.68860424  0.78168106  0.71321446    -0.55100
C2269       C  0.67634938  0.75346430  0.72229704     0.08000
C2270       C  0.67093044  0.72857948  0.69980758     0.19000
C2271       C  0.71615209  0.75444748  0.67666880    -0.55800
C2272       C  0.70403738  0.72600184  0.68588245     0.08100
C2273       C  0.66152734  0.77352860  0.66955603    -0.55400
C2274       C  0.64943136  0.74518337  0.67869621     0.08700
H2275       H  0.69493049  0.80029267  0.72742003     0.13200
H2276       H  0.66134662  0.70543938  0.70749977    -0.01000
H2277       H  0.73961595  0.75660417  0.66715516     0.13500
H2278       H  0.64897563  0.78831895  0.65475587     0.13300
In2279     In  0.71260914  0.96200306  0.60499934     1.36900
C2280       C  0.71320031  0.90553365  0.62954651     0.76200
O2281       O  0.65926980  0.95749061  0.60664554    -0.62200
O2282       O  0.68036058  0.96713835  0.56806277    -0.53100
C2283       C  0.71099109  0.51818958  0.62959283     0.68900
O2284       O  0.70965878  0.99206294  0.64239308    -0.48000
C2285       C  0.77229896  0.96064708  0.58544007     0.73600
O2286       O  0.71237605  0.93155743  0.64241638    -0.59900
O2287       O  0.74812053  0.96068034  0.56987938    -0.50000
O2288       O  0.71338928  0.90841186  0.60384449    -0.56300
C2289       C  0.65484879  0.96329407  0.58168916     0.83800
O2290       O  0.71281820  0.51555476  0.60399954    -0.58200
O2291       O  0.76566210  0.96221699  0.61047707    -0.61500
In2292     In  0.96386918  0.71218131  0.61899925     1.36900
C2293       C  0.96410371  0.65570001  0.59500781     0.76200
O2294       O  0.51703194  0.71232802  0.61440511    -0.62200
O2295       O  0.99833150  0.71358129  0.65473633    -0.53100
C2296       C  0.96426770  0.76924485  0.59542891     0.68900
O2297       O  0.96647918  0.74353471  0.58224645    -0.48000
C2298       C  0.90447143  0.70891145  0.63919965     0.73600
O2299       O  0.96119653  0.68155908  0.58193318    -0.59900
O2300       O  0.92878419  0.71079874  0.65457416    -0.50000
O2301       O  0.96696050  0.65882174  0.62053545    -0.56300
C2302       C  0.52296326  0.71398360  0.63956405     0.83800
O2303       O  0.96185830  0.76577117  0.62097092    -0.58200
O2304       O  0.91084959  0.70971502  0.61407316    -0.61500
C2305       C  0.71191834  0.81639564  0.64188053    -0.14700
C2306       C  0.70544102  0.81469105  0.67008704     0.07400
C2307       C  0.70503867  0.84341936  0.68508668    -0.14700
C2308       C  0.70895273  0.87279429  0.67196023    -0.14700
C2309       C  0.71315680  0.87432950  0.64358904     0.07400
C2310       C  0.71563063  0.84587311  0.62875572    -0.14700
H2311       H  0.71223982  0.79486802  0.62968973     0.11400
H2312       H  0.69981459  0.84412592  0.70660837     0.11400
H2313       H  0.70717598  0.89443508  0.68392261     0.11400
H2314       H  0.71922591  0.84641685  0.60685303     0.11400
C2315       C  0.61193273  0.73145475  0.64080851    -0.14700
C2316       C  0.61823903  0.73263530  0.66890644     0.07400
C2317       C  0.59366979  0.72467763  0.68736063    -0.14700
C2318       C  0.56274677  0.71756765  0.67795514    -0.14700
C2319       C  0.55612533  0.71767721  0.64985757     0.07400
C2320       C  0.58128796  0.72373694  0.63136346    -0.14700
H2321       H  0.63057927  0.73730239  0.62617138     0.11400
H2322       H  0.59783794  0.72549847  0.70902235     0.11400
H2323       H  0.54385639  0.71289313  0.69265183     0.11400
H2324       H  0.57698545  0.72386066  0.60956282     0.11400
C2325       C  0.81652142  0.68711292  0.64035766    -0.14700
C2326       C  0.80874167  0.69004029  0.66815040     0.07400
C2327       C  0.83194377  0.70219682  0.68612310    -0.14700
C2328       C  0.86308713  0.70907447  0.67680534    -0.14700
C2329       C  0.87117701  0.70470706  0.64920939     0.07400
C2330       C  0.84727839  0.69457142  0.63096819    -0.14700
H2331       H  0.79895527  0.67828176  0.62594777     0.11400
H2332       H  0.82654658  0.70491774  0.70754451     0.11400
H2333       H  0.88097134  0.71715292  0.69124020     0.11400
H2334       H  0.85268593  0.69117688  0.60953736     0.11400
C2335       C  0.72003804  0.57933143  0.68521882    -0.14700
C2336       C  0.72157171  0.60807124  0.67015315     0.07400
C2337       C  0.71597166  0.60690082  0.64180807    -0.14700
C2338       C  0.71125295  0.57777944  0.62863811    -0.14700
C2339       C  0.71167033  0.54918680  0.64359487     0.07400
C2340       C  0.71504171  0.55028865  0.67204068    -0.14700
H2341       H  0.72422804  0.57836633  0.70689645     0.11400
H2342       H  0.71702797  0.62852036  0.62960523     0.11400
H2343       H  0.70844990  0.57755863  0.60665516     0.11400
H2344       H  0.71532051  0.52849476  0.68403941     0.11400
C2345       C  0.58701956  0.98602332  0.53401773    -0.14700
C2346       C  0.56034174  0.98224126  0.55123277     0.07400
C2347       C  0.56456359  0.96965086  0.57749979    -0.14700
C2348       C  0.59525049  0.96191309  0.58683103    -0.14700
C2349       C  0.62228407  0.96691178  0.57010127     0.07400
C2350       C  0.61781487  0.97830817  0.54334370    -0.14700
H2351       H  0.58426680  0.99653326  0.51394254     0.11400
H2352       H  0.54422034  0.96692553  0.59111239     0.11400
H2353       H  0.59793771  0.95320605  0.60755439     0.11400
H2354       H  0.63821188  0.98264679  0.53010627     0.11400
C2355       C  0.47319828  0.56714570  0.58348691    -0.14700
C2356       C  0.97462439  0.56548567  0.55478795     0.07400
C2357       C  0.96835995  0.59349392  0.53961827    -0.14700
C2358       C  0.96371670  0.62261061  0.55281274    -0.14700
C2359       C  0.96500980  0.62442958  0.58137160     0.07400
C2360       C  0.96873861  0.59630997  0.59664035    -0.14700
H2361       H  0.47724518  0.54596732  0.59578378     0.11400
H2362       H  0.96775573  0.59377899  0.51763055     0.11400
H2363       H  0.96016739  0.64392112  0.54057623     0.11400
H2364       H  0.46930843  0.59698607  0.61874177     0.11400
C2365       C  0.84509032  0.95557652  0.53896982    -0.14700
C2366       C  0.86816534  0.94319432  0.55698213     0.07400
C2367       C  0.86031477  0.94010329  0.58477137    -0.14700
C2368       C  0.82954438  0.94739233  0.59406670    -0.14700
C2369       C  0.80571350  0.95738818  0.57570670     0.07400
C2370       C  0.81391048  0.96215860  0.54816092    -0.14700
H2371       H  0.85055495  0.95865584  0.51760402     0.11400
H2372       H  0.87779157  0.93116207  0.59923486     0.11400
H2373       H  0.82400712  0.94374074  0.61546958     0.11400
H2374       H  0.79606021  0.97023648  0.53366169     0.11400
C2375       C  0.95907328  0.85840311  0.58379545    -0.14700
C2376       C  0.95407922  0.86005681  0.55535296     0.07400
C2377       C  0.95630371  0.83156516  0.54019064    -0.14700
C2378       C  0.96095633  0.80232004  0.55328653    -0.14700
C2379       C  0.96349810  0.80065384  0.58177468     0.07400
C2380       C  0.96349790  0.82901084  0.59690407    -0.14700
H2381       H  0.95777212  0.87982739  0.59607843     0.11400
H2382       H  0.95319993  0.83087459  0.51840019     0.11400
H2383       H  0.96122787  0.78078045  0.54110344     0.11400
H2384       H  0.96584400  0.82839023  0.61892258     0.11400
C2385       C  0.81643697  0.70091403  0.83522870    -0.14700
C2386       C  0.81499694  0.70024145  0.80649316     0.07400
C2387       C  0.84322171  0.70690152  0.79161454    -0.14700
C2388       C  0.87232673  0.71127586  0.80506584    -0.14700
C2389       C  0.87394522  0.70941609  0.83361421     0.07400
C2390       C  0.84563093  0.70516394  0.84865726    -0.14700
H2391       H  0.79507044  0.69650301  0.84730176     0.11400
H2392       H  0.84373260  0.70801949  0.76965439     0.11400
H2393       H  0.89378444  0.71523969  0.79300650     0.11400
H2394       H  0.84616826  0.70421417  0.87075640     0.11400
C2395       C  0.71189112  0.60851671  0.82129468    -0.14700
C2396       C  0.73300763  0.61350000  0.79941501     0.07400
C2397       C  0.74570534  0.58715662  0.78553667    -0.14700
C2398       C  0.73832910  0.55606632  0.79409478    -0.14700
C2399       C  0.71845466  0.55090967  0.81690081     0.07400
C2400       C  0.70468476  0.57742149  0.83002637    -0.14700
H2401       H  0.70214926  0.62867603  0.83233436     0.11400
H2402       H  0.76232741  0.59070905  0.76875968     0.11400
H2403       H  0.74937239  0.53612979  0.78367652     0.11400
H2404       H  0.68928715  0.57415196  0.84765480     0.11400
C2405       C  0.68766449  0.83452509  0.78348018    -0.14700
C2406       C  0.69423382  0.80810263  0.80024132     0.07400
C2407       C  0.70895259  0.81279293  0.82558322    -0.14700
C2408       C  0.71594806  0.84368727  0.83456825    -0.14700
C2409       C  0.70811467  0.87038949  0.81838109     0.07400
C2410       C  0.69468695  0.86548022  0.79242623    -0.14700
H2411       H  0.67548195  0.83135589  0.76418257     0.11400
H2412       H  0.71372339  0.79262532  0.83889292     0.11400
H2413       H  0.72626630  0.84672965  0.85467028     0.11400
H2414       H  0.68825685  0.88559608  0.77959628     0.11400
C2415       C  0.58086184  0.72010284  0.79116760    -0.14700
C2416       C  0.60945810  0.72425832  0.80612295     0.07400
C2417       C  0.60782540  0.72264887  0.83483772    -0.14700
C2418       C  0.57839757  0.71933928  0.84821800    -0.14700
C2419       C  0.54994226  0.71708202  0.83315943     0.07400
C2420       C  0.55152207  0.71660204  0.80458035    -0.14700
H2421       H  0.58023529  0.72041500  0.76921135     0.11400
H2422       H  0.62933477  0.72549918  0.84697457     0.11400
H2423       H  0.57785106  0.71934615  0.87033021     0.11400
H2424       H  0.52989785  0.71441940  0.79248740     0.11400
C2425       C  0.98464738  0.59907074  0.88269274    -0.14700
C2426       C  0.97231518  0.62165560  0.90105235     0.07400
C2427       C  0.96593695  0.61211937  0.92806861    -0.14700
C2428       C  0.97258761  0.58071003  0.93660163    -0.14700
C2429       C  0.98654326  0.55868779  0.91849485     0.07400
C2430       C  0.99175982  0.56811290  0.89129934    -0.14700
H2431       H  0.98962959  0.60554637  0.86167228     0.11400
H2432       H  0.95613316  0.62894824  0.94258176     0.11400
H2433       H  0.96781031  0.57410302  0.95753021     0.11400
H2434       H  0.50179025  0.55159250  0.87663880     0.11400
C2435       C  0.59478322  0.96573178  0.93354607    -0.14700
C2436       C  0.56609033  0.96910596  0.91856372     0.07400
C2437       C  0.56730908  0.96458122  0.89007971    -0.14700
C2438       C  0.59653950  0.95965343  0.87674719    -0.14700
C2439       C  0.62522809  0.95882032  0.89164423     0.07400
C2440       C  0.62393405  0.96069088  0.92018901    -0.14700
H2441       H  0.59572989  0.96846169  0.95536310     0.11400
H2442       H  0.54573149  0.96679401  0.87792620     0.11400
H2443       H  0.59681696  0.95791997  0.85468946     0.11400
H2444       H  0.64570829  0.95969500  0.93219928     0.11400
C2445       C  0.95883594  0.81434832  0.92854954    -0.14700
C2446       C  0.95429637  0.80631130  0.90099779     0.07400
C2447       C  0.94439652  0.83022445  0.88264528    -0.14700
C2448       C  0.93722406  0.86089403  0.89188885    -0.14700
C2449       C  0.94018193  0.86861301  0.91965255     0.07400
C2450       C  0.95222498  0.84539862  0.93771174    -0.14700
H2451       H  0.96681684  0.79649840  0.94307624     0.11400
H2452       H  0.94101551  0.82493368  0.86121106     0.11400
H2453       H  0.92859929  0.87846287  0.87736745     0.11400
H2454       H  0.95521414  0.85071422  0.95906855     0.11400
C2455       C  0.82981881  0.95843801  0.93503596    -0.14700
C2456       C  0.85877183  0.95615753  0.92018840     0.07400
C2457       C  0.85772119  0.96097452  0.89171550    -0.14700
C2458       C  0.82851254  0.96500720  0.87823084    -0.14700
C2459       C  0.79962266  0.96462190  0.89293357     0.07400
C2460       C  0.80062990  0.96257829  0.92150023    -0.14700
H2461       H  0.82877801  0.95541723  0.95685474     0.11400
H2462       H  0.87948732  0.95961455  0.87966386     0.11400
H2463       H  0.82846764  0.96700979  0.85617467     0.11400
H2464       H  0.77867393  0.96268526  0.93335921     0.11400
loop_ 
_geom_bond_atom_site_label_1 
_geom_bond_atom_site_label_2 
_geom_bond_distance 
_geom_bond_site_symmetry_2 
_ccdc_geom_bond_type 
C1            C2   1.542       .  S
C1            C7   1.537       .  S
C1            C5   1.537       .  S
C1          C300   1.526       .  S
C2            H9   1.076       .  S
C2            C3   1.361       .  D
C3            C4   1.541       .  S
C3          C385   1.477       .  S
C4            C8   1.539       .  S
C4            C6   1.544       .  S
C4           H10   1.111       .  S
C5           H11   1.086       .  S
C5            C6   1.365       .  D
C6           C18   1.475       .  S
C7           H12   1.087       .  S
C7            C8   1.363       .  D
C8          C293   1.489       .  S
C13          C14   1.542       .  S
C13          C17   1.537       .  S
C13         C635   1.537       .  S
C13         C280   1.527       .  S
C14          H21   1.079       .  S
C14         C631   1.360       .  D
C15        C1248   1.536   1_465  S
C15         C630   1.360       .  D
C15         C397   1.471   1_565  S
C16          C20   1.538       .  S
C16        C1247   1.536   1_545  S
C16         C634   1.543   1_545  S
C16          H22   1.111       .  S
C17          H23   1.086       .  S
C17        C1250   1.366   1_455  D
C18         C632   1.543       .  S
C18        C1249   1.366       .  D
C19         C629   1.537   1_545  S
C19          H24   1.087       .  S
C19        C1252   1.365   1_455  D
C20        C1251   1.365       .  D
C20         C273   1.491       .  S
C25          C26   1.544       .  S
C25          C31   1.538       .  S
C25          C29   1.539       .  S
C25         C260   1.524       .  S
C26          H33   1.073       .  S
C26          C27   1.360       .  D
C27          C28   1.533       .  S
C27         C113   1.471       .  S
C28          C32   1.531       .  S
C28          C30   1.538       .  S
C28          H34   1.111       .  S
C29          H35   1.086       .  S
C29          C30   1.366       .  D
C30          C42   1.472       .  S
C31          H36   1.087       .  S
C31          C32   1.359       .  D
C32         C250   1.473       .  S
C37          C38   1.544       .  S
C37          C43   1.539       .  S
C37          C41   1.536       .  S
C37         C230   1.522       .  S
C38          H45   1.077       .  S
C38          C39   1.360       .  D
C39          C40   1.538       .  S
C39         C101   1.472       .  S
C40          C44   1.531       .  S
C40          C42   1.540       .  S
C40          H46   1.111       .  S
C41          H47   1.086       .  S
C41          C42   1.364       .  D
C43          H48   1.087       .  S
C43          C44   1.360       .  D
C44         C240   1.474       .  S
In49         O51   2.226       .  S
In49         O52   2.275       .  S
In49         O60   2.244       .  S
In49         O54   2.224       .  S
In49         O56   2.225       .  S
In49         O57   2.282       .  S
In49         O61   2.216       .  S
In49       O1290   2.240       .  S
C50          O58   1.263       .  A
C50        O1288   1.261   1_455  A
C50         C263   1.472       .  S
O51          C59   1.258       .  A
O52          C59   1.267       .  A
C53          O60   1.263       .  A
C53          O54   1.260       .  A
C53         C233   1.471       .  S
C55          O57   1.267       .  A
C55          O61   1.258       .  A
C55         C270   1.482       .  S
O56        C1282   1.261       .  A
O58       In1281   2.240   1_455  S
C59         C290   1.482       .  S
In62         O64   2.242       .  S
In62         O65   2.235       .  S
In62         O73   2.240       .  S
In62         O67   2.261       .  S
In62         O69   2.258       .  S
In62         O70   2.244       .  S
In62         O74   2.242       .  S
In62        O687   2.247       .  S
C63          O71   1.259       .  A
C63         O685   1.262   1_545  A
C63         C243   1.480       .  S
O64          C72   1.262       .  A
O65          C72   1.262       .  A
C66          O73   1.259       .  A
C66          O67   1.263       .  A
C66         C253   1.480       .  S
C68          O70   1.262       .  A
C68          O74   1.261       .  A
C68         C303   1.476       .  S
O69         C679   1.262       .  A
O71        In678   2.247   1_545  S
C72         C283   1.475       .  S
C75          C76   1.543       .  S
C75          C81   1.535       .  S
C75          C79   1.537       .  S
C75         C220   1.526       .  S
C76          H83   1.075   1_554  S
C76          C77   1.360       .  D
C77          C78   1.539       .  S
C77         C311   1.477   1_554  S
C78          C82   1.539       .  S
C78          C80   1.541       .  S
C78          H84   1.111       .  S
C79          H85   1.086       .  S
C79          C80   1.366       .  D
C80          C92   1.473       .  S
C81          H86   1.087       .  S
C81          C82   1.363       .  D
C82         C210   1.486       .  S
C87          C88   1.543       .  S
C87          C91   1.537       .  S
C87        C1325   1.540       .  S
C87         C200   1.523       .  S
C88          H95   1.077   1_554  S
C88        C1321   1.361       .  D
C89         C706   1.535   1_545  S
C89        C1320   1.361   1_455  D
C89         C323   1.470   1_544  S
C90          C94   1.531       .  S
C90         C705   1.535       .  S
C90        C1324   1.539   1_455  S
C90          H96   1.111       .  S
C91          H97   1.086       .  S
C91         C708   1.365   1_545  D
C92        C1322   1.539       .  S
C92         C707   1.365       .  D
C93        C1319   1.540   1_455  S
C93          H98   1.087       .  S
C93         C710   1.360   1_545  D
C94         C709   1.360       .  D
C94         C190   1.474       .  S
C99         C100   1.542       .  S
C99         C105   1.536       .  S
C99         C103   1.537       .  S
C99         C180   1.522       .  S
C100        H107   1.082       .  S
C100        C101   1.361       .  D
C101        C102   1.537       .  S
C102        C106   1.538       .  S
C102        C104   1.540       .  S
C102        H108   1.111       .  S
C103        H109   1.086       .  S
C103        C104   1.366       .  D
C104        C116   1.472       .  S
C105        H110   1.087       .  S
C105        C106   1.362       .  D
C106        C170   1.487       .  S
C111        C112   1.541       .  S
C111        C117   1.538       .  S
C111        C115   1.537       .  S
C111        C150   1.524       .  S
C112        H119   1.079       .  S
C112        C113   1.359       .  D
C113        C114   1.536       .  S
C114        C118   1.535       .  S
C114        C116   1.543       .  S
C114        H120   1.111       .  S
C115        H121   1.086       .  S
C115        C116   1.367       .  D
C117        H122   1.087       .  S
C117        C118   1.362       .  D
C118        C160   1.483       .  S
In123       O125   2.232       .  S
In123       O126   2.265       .  S
In123       O128   2.229       .  S
In123       O130   2.228       .  S
In123       O131   2.268       .  S
In123       O132   2.245       .  S
In123       O135   2.228       .  S
In123       O750   2.242       .  S
C124        O130   1.261       .  A
C124        O132   1.264       .  A
C124        C153   1.474       .  S
O125        C133   1.259       .  A
O126        C133   1.264       .  A
C127        O134   1.261       .  A
C127        O744   1.259   1_545  A
C127        C183   1.470       .  S
O128        C743   1.259       .  A
C129        O131   1.265       .  A
C129        O135   1.258       .  A
C129        C213   1.478       .  S
C133        C193   1.480       .  S
O134       In739   2.242   1_545  S
In136       O139   2.267       .  S
In136       O147   2.247       .  S
In136       O141   2.226       .  S
In136       O143   2.229       .  S
In136       O144   2.273       .  S
In136       O145   2.239       .  S
In136       O148   2.226       .  S
In136      O1370   2.227       .  S
C137        O143   1.262       .  A
C137        O145   1.263       .  A
C137        C203   1.472       .  S
O138      In1368   2.227   1_455  S
O138        C146   1.259       .  A
O139       C1378   1.266       .  A
C140        O147   1.262       .  A
C140        O141   1.261       .  A
C140        C223   1.473       .  S
C142        O144   1.266       .  A
C142        O148   1.259       .  A
C142        C173   1.481       .  S
C146       O1371   1.266   1_455  A
C146        C163   1.480       .  S
C149        C150   1.408       .  A
C149        C154   1.397       .  A
C149        H155   1.083       .  S
C150        C151   1.412       .  A
C151        C152   1.394       .  A
C151        H156   1.076       .  S
C152        C153   1.401       .  A
C152        H157   1.083       .  S
C153        C154   1.402       .  A
C154        H158   1.083       .  S
C159        C160   1.402       .  A
C159        C164   1.397       .  A
C159        H165   1.083       .  S
C160        C161   1.403       .  A
C161        C162   1.402       .  A
C161        H166   1.076       .  S
C162        C163   1.404       .  A
C162        H167   1.083       .  S
C163        C164   1.407       .  A
C164        H168   1.083       .  S
C169        C170   1.404       .  A
C169        C174   1.396       .  A
C169        H175   1.083       .  S
C170        C171   1.405       .  A
C171        C172   1.404       .  A
C171        H176   1.079       .  S
C172        C173   1.405       .  A
C172        H177   1.083       .  S
C173        C174   1.405       .  A
C174        H178   1.083       .  S
C179        C180   1.410       .  A
C179        C184   1.394       .  A
C179        H185   1.077       .  S
C180        C181   1.409       .  A
C181        C182   1.395       .  A
C181        H186   1.083       .  S
C182        C183   1.401       .  A
C182        H187   1.083       .  S
C183        C184   1.401       .  A
C184        H188   1.083       .  S
C189        C190   1.403       .  A
C189        C194   1.401       .  A
C189        H195   1.082       .  S
C190        C191   1.400       .  A
C191        C192   1.397       .  A
C191        H196   1.083       .  S
C192        C193   1.407       .  A
C192        H197   1.083       .  S
C193        C194   1.405       .  A
C194        H198   1.083       .  S
C199       C1432   1.409       .  A
C199       C1436   1.395       .  A
C199        H205   1.083       .  S
C200        C201   1.410       .  A
C200       C1431   1.409       .  A
C201        C202   1.395       .  A
C201        H206   1.077       .  S
C202        C203   1.402       .  A
C202        H207   1.083       .  S
C203        C204   1.401       .  A
C204       C1431   1.395       .  A
C204       H1440   1.083       .  S
H208       C1436   1.083       .  S
C209        C210   1.405       .  A
C209        C214   1.403       .  A
C209        H215   1.078       .  S
C210        C211   1.404       .  A
C211        C212   1.395       .  A
C211        H216   1.083       .  S
C212        C213   1.404       .  A
C212        H217   1.083       .  S
C213        C214   1.404       .  A
C214        H218   1.083       .  S
C219        C220   1.410       .  A
C219        C224   1.398       .  A
C219        H225   1.083       .  S
C220        C221   1.411       .  A
C221        C222   1.394       .  A
C221        H226   1.076       .  S
C222        C223   1.401       .  A
C222        H227   1.083       .  S
C223        C224   1.402       .  A
C224        H228   1.083       .  S
C229        C230   1.409       .  A
C229        C234   1.396       .  A
C229        H235   1.083       .  S
C230        C231   1.410       .  A
C231        C232   1.394       .  A
C231        H236   1.076       .  S
C232        C233   1.402       .  A
C232        H237   1.083       .  S
C233        C234   1.401       .  A
C234        H238   1.083       .  S
C239        C240   1.400       .  A
C239        C244   1.400       .  A
C239        H245   1.083       .  S
C240        C241   1.402       .  A
C241        C242   1.399       .  A
C241        H246   1.083       .  S
C242        C243   1.405       .  A
C242        H247   1.083       .  S
C243        C244   1.408       .  A
C244        H248   1.083       .  S
C249        C250   1.402       .  A
C249        C254   1.400       .  A
C249        H255   1.082       .  S
C250        C251   1.400       .  A
C251        C252   1.398       .  A
C251        H256   1.083       .  S
C252        C253   1.407       .  A
C252        H257   1.083       .  S
C253        C254   1.405       .  A
C254        H258   1.083       .  S
C259        C260   1.411       .  A
C259        C264   1.394       .  A
C259        H265   1.076       .  S
C260        C261   1.409       .  A
C261        C262   1.396       .  A
C261        H266   1.083       .  S
C262        C263   1.401       .  A
C262        H267   1.083       .  S
C263        C264   1.401       .  A
C264        H268   1.083       .  S
C269        C270   1.405       .  A
C269        C274   1.394       .  A
C269        H275   1.083       .  S
C270        C271   1.405       .  A
C271        C272   1.406       .  A
C271        H276   1.083       .  S
C272        C273   1.408       .  A
C272        H277   1.079       .  S
C273        C274   1.404       .  A
C274       H1510   1.083       .  S
H278       C1506   1.083   1_455  S
C279        C280   1.411       .  A
C279        C284   1.396       .  A
C279        H285   1.076       .  S
C280        C281   1.409       .  A
C281        C282   1.398       .  A
C281        H286   1.083       .  S
C282        C283   1.402       .  A
C282        H287   1.083       .  S
C283        C284   1.401       .  A
C284        H288   1.083       .  S
C289        C290   1.405       .  A
C289        C294   1.404       .  A
C289        H295   1.083       .  S
C290        C291   1.406       .  A
C291        C292   1.396       .  A
C291        H296   1.083       .  S
C292        C293   1.404       .  A
C292        H297   1.083       .  S
C293        C294   1.405       .  A
C294        H298   1.078       .  S
C299        C300   1.412       .  A
C299        C304   1.397       .  A
C299        H305   1.076       .  S
C300        C301   1.409       .  A
C301        C302   1.396       .  A
C301        H306   1.083       .  S
C302        C303   1.402       .  A
C302        H307   1.083       .  S
C303        C304   1.402       .  A
C304        H308   1.083       .  S
C309        C310   1.542       .  S
C309        C315   1.537       .  S
C309        C313   1.537       .  S
C309        C608   1.526       .  S
C310        H317   1.076       .  S
C310        C311   1.361       .  D
C311        C312   1.541       .  S
C312        C316   1.539       .  S
C312        C314   1.544       .  S
C312        H318   1.111       .  S
C313        H319   1.086       .  S
C313        C314   1.365       .  D
C314        C326   1.475       .  S
C315        H320   1.087       .  S
C315        C316   1.363       .  D
C316        C601   1.489       .  S
C321        C322   1.542       .  S
C321        C943   1.537       .  S
C321        C325   1.537       .  S
C321        C588   1.526       .  S
C322        H329   1.079       .  S
C322        C939   1.360       .  D
C323       C1556   1.536   1_465  S
C323        C938   1.360       .  D
C324       C1555   1.536   1_545  S
C324        C328   1.538       .  S
C324        C942   1.542   1_545  S
C324        H330   1.111       .  S
C325        H331   1.086       .  S
C325       C1558   1.366   1_455  D
C326        C940   1.542       .  S
C326       C1557   1.366       .  D
C327        C937   1.537   1_545  S
C327        H332   1.087       .  S
C327       C1560   1.365   1_455  D
C328       C1559   1.365       .  D
C328        C581   1.491       .  S
C333        C334   1.544       .  S
C333        C339   1.538       .  S
C333        C337   1.539       .  S
C333        C568   1.524       .  S
C334        H341   1.073       .  S
C334        C335   1.360       .  D
C335        C336   1.533       .  S
C335        C421   1.471       .  S
C336        C340   1.531       .  S
C336        C338   1.538       .  S
C336        H342   1.111       .  S
C337        H343   1.086       .  S
C337        C338   1.366       .  D
C338        C350   1.472       .  S
C339        H344   1.087       .  S
C339        C340   1.359       .  D
C340        C558   1.473       .  S
C345        C346   1.544       .  S
C345        C351   1.539       .  S
C345        C349   1.536       .  S
C345        C538   1.522       .  S
C346        H353   1.077       .  S
C346        C347   1.360       .  D
C347        C348   1.538       .  S
C347        C409   1.472       .  S
C348        C352   1.531       .  S
C348        C350   1.540       .  S
C348        H354   1.111       .  S
C349        H355   1.086       .  S
C349        C350   1.364       .  D
C351        H356   1.087       .  S
C351        C352   1.360       .  D
C352        C548   1.474       .  S
In357       O359   2.226       .  S
In357       O360   2.275       .  S
In357       O368   2.243       .  S
In357       O362   2.224       .  S
In357       O364   2.224       .  S
In357       O365   2.282       .  S
In357      O1598   2.239       .  S
In357       O369   2.216       .  S
C358       O1596   1.261   1_455  A
C358        O366   1.263       .  A
C358        C571   1.472       .  S
O359        C367   1.258       .  A
O360        C367   1.267       .  A
C361        O368   1.263       .  A
C361        O362   1.260       .  A
C361        C541   1.471       .  S
C363        O365   1.267       .  A
C363        O369   1.258       .  A
C363        C578   1.482       .  S
O364       C1590   1.261       .  A
O366      In1589   2.240   1_455  S
C367        C598   1.482       .  S
In370       O372   2.242       .  S
In370       O373   2.235       .  S
In370       O381   2.240       .  S
In370       O375   2.261       .  S
In370       O377   2.258       .  S
In370       O378   2.244       .  S
In370       O995   2.247       .  S
In370       O382   2.242       .  S
C371        O993   1.262   1_545  A
C371        O379   1.259       .  A
C371        C551   1.480       .  S
O372        C380   1.262       .  A
O373        C380   1.262       .  A
C374        O381   1.259       .  A
C374        O375   1.263       .  A
C374        C561   1.480       .  S
C376        O378   1.262       .  A
C376        O382   1.261       .  A
C376        C611   1.476       .  S
O377        C987   1.262       .  A
O379       In986   2.247   1_545  S
C380        C591   1.475       .  S
C383        C384   1.543       .  S
C383        C389   1.535       .  S
C383        C387   1.537       .  S
C383        C528   1.526       .  S
C384        H391   1.075       .  S
C384        C385   1.360       .  D
C385        C386   1.539       .  S
C386        C390   1.539       .  S
C386        C388   1.541       .  S
C386        H392   1.111       .  S
C387        H393   1.086       .  S
C387        C388   1.366       .  D
C388        C400   1.473       .  S
C389        H394   1.087       .  S
C389        C390   1.363       .  D
C390        C518   1.487       .  S
C395        C396   1.543       .  S
C395       C1633   1.540       .  S
C395        C399   1.537       .  S
C395        C508   1.523       .  S
C396        H403   1.077       .  S
C396       C1629   1.361       .  D
C397       C1014   1.535   1_545  S
C397       C1628   1.361   1_455  D
C398       C1013   1.535       .  S
C398        C402   1.532       .  S
C398       C1632   1.539   1_455  S
C398        H404   1.111       .  S
C399        H405   1.086       .  S
C399       C1016   1.365   1_545  D
C400       C1630   1.539       .  S
C400       C1015   1.365       .  D
C401       C1627   1.540   1_455  S
C401        H406   1.087       .  S
C401       C1018   1.360   1_545  D
C402       C1017   1.360       .  D
C402        C498   1.474       .  S
C407        C408   1.542       .  S
C407        C413   1.536       .  S
C407        C411   1.537       .  S
C407        C488   1.521       .  S
C408        H415   1.082       .  S
C408        C409   1.361       .  D
C409        C410   1.537       .  S
C410        C414   1.538       .  S
C410        C412   1.540       .  S
C410        H416   1.111       .  S
C411        H417   1.086       .  S
C411        C412   1.366       .  D
C412        C424   1.472       .  S
C413        H418   1.087       .  S
C413        C414   1.362       .  D
C414        C478   1.487       .  S
C419        C420   1.541       .  S
C419        C425   1.538       .  S
C419        C423   1.537       .  S
C419        C458   1.524       .  S
C420        H427   1.079       .  S
C420        C421   1.359       .  D
C421        C422   1.536       .  S
C422        C426   1.535       .  S
C422        C424   1.543       .  S
C422        H428   1.111       .  S
C423        H429   1.086       .  S
C423        C424   1.367       .  D
C425        H430   1.087       .  S
C425        C426   1.362       .  D
C426        C468   1.483       .  S
In431       O433   2.233       .  S
In431       O434   2.265       .  S
In431      O1058   2.242       .  S
In431       O436   2.229       .  S
In431       O438   2.228       .  S
In431       O439   2.268       .  S
In431       O440   2.245       .  S
In431       O443   2.228       .  S
C432        O438   1.261       .  A
C432        O440   1.264       .  A
C432        C461   1.474       .  S
O433        C441   1.259       .  A
O434        C441   1.264       .  A
C435        O442   1.261       .  A
C435       O1052   1.259   1_545  A
C435        C491   1.470       .  S
O436       C1051   1.259       .  A
C437        O439   1.265       .  A
C437        O443   1.258       .  A
C437        C521   1.478       .  S
C441        C501   1.480       .  S
O442      In1047   2.242   1_545  S
In444      O1678   2.227       .  S
In444       O447   2.267       .  S
In444       O455   2.248       .  S
In444       O449   2.226       .  S
In444       O451   2.229       .  S
In444       O452   2.273       .  S
In444       O453   2.239       .  S
In444       O456   2.226       .  S
C445        O451   1.262       .  A
C445        O453   1.263       .  A
C445        C511   1.472       .  S
O446      In1676   2.227   1_455  S
O446        C454   1.259       .  A
O447       C1686   1.266       .  A
C448        O455   1.262       .  A
C448        O449   1.261       .  A
C448        C531   1.473       .  S
C450        O452   1.266       .  A
C450        O456   1.259       .  A
C450        C481   1.481       .  S
C454       O1679   1.266   1_455  A
C454        C471   1.480       .  S
C457        C458   1.408       .  A
C457        C462   1.397       .  A
C457        H463   1.083       .  S
C458        C459   1.412       .  A
C459        C460   1.394       .  A
C459        H464   1.076       .  S
C460        C461   1.401       .  A
C460        H465   1.083       .  S
C461        C462   1.402       .  A
C462        H466   1.083       .  S
C467        C468   1.402       .  A
C467        C472   1.397       .  A
C467        H473   1.083       .  S
C468        C469   1.403       .  A
C469        C470   1.402       .  A
C469        H474   1.076       .  S
C470        C471   1.404       .  A
C470        H475   1.083       .  S
C471        C472   1.407       .  A
C472        H476   1.083       .  S
C477        C478   1.404       .  A
C477        C482   1.396       .  A
C477        H483   1.083       .  S
C478        C479   1.405       .  A
C479        C480   1.404       .  A
C479        H484   1.079       .  S
C480        C481   1.405       .  A
C480        H485   1.083       .  S
C481        C482   1.405       .  A
C482        H486   1.083       .  S
C487        C488   1.410       .  A
C487        C492   1.394       .  A
C487        H493   1.077       .  S
C488        C489   1.409       .  A
C489        C490   1.395       .  A
C489        H494   1.083       .  S
C490        C491   1.401       .  A
C490        H495   1.083       .  S
C491        C492   1.401       .  A
C492        H496   1.083       .  S
C497        C498   1.403       .  A
C497        C502   1.401       .  A
C497        H503   1.082       .  S
C498        C499   1.400       .  A
C499        C500   1.397       .  A
C499        H504   1.083       .  S
C500        C501   1.407       .  A
C500        H505   1.083       .  S
C501        C502   1.405       .  A
C502        H506   1.083       .  S
C507       C1740   1.409       .  A
C507       C1744   1.395       .  A
C507        H513   1.083       .  S
C508       C1739   1.409       .  A
C508        C509   1.411       .  A
C509        C510   1.396       .  A
C509        H514   1.077       .  S
C510        C511   1.402       .  A
C510        H515   1.083       .  S
C511        C512   1.401       .  A
C512       C1739   1.395       .  A
C512       H1748   1.083       .  S
H516       C1744   1.083       .  S
C517        C518   1.405       .  A
C517        C522   1.403       .  A
C517        H523   1.078       .  S
C518        C519   1.404       .  A
C519        C520   1.395       .  A
C519        H524   1.083       .  S
C520        C521   1.404       .  A
C520        H525   1.083       .  S
C521        C522   1.404       .  A
C522        H526   1.083       .  S
C527        C528   1.410       .  A
C527        C532   1.398       .  A
C527        H533   1.083       .  S
C528        C529   1.411       .  A
C529        C530   1.394       .  A
C529        H534   1.076       .  S
C530        C531   1.401       .  A
C530        H535   1.083       .  S
C531        C532   1.402       .  A
C532        H536   1.083       .  S
C537        C538   1.409       .  A
C537        C542   1.396       .  A
C537        H543   1.083       .  S
C538        C539   1.410       .  A
C539        C540   1.394       .  A
C539        H544   1.076       .  S
C540        C541   1.402       .  A
C540        H545   1.083       .  S
C541        C542   1.401       .  A
C542        H546   1.083       .  S
C547        C548   1.400       .  A
C547        C552   1.400       .  A
C547        H553   1.083       .  S
C548        C549   1.402       .  A
C549        C550   1.399       .  A
C549        H554   1.083       .  S
C550        C551   1.405       .  A
C550        H555   1.083       .  S
C551        C552   1.408       .  A
C552        H556   1.083       .  S
C557        C558   1.402       .  A
C557        C562   1.400       .  A
C557        H563   1.082       .  S
C558        C559   1.400       .  A
C559        C560   1.398       .  A
C559        H564   1.083       .  S
C560        C561   1.407       .  A
C560        H565   1.083       .  S
C561        C562   1.405       .  A
C562        H566   1.083       .  S
C567        C568   1.411       .  A
C567        C572   1.395       .  A
C567        H573   1.076       .  S
C568        C569   1.409       .  A
C569        C570   1.396       .  A
C569        H574   1.083       .  S
C570        C571   1.401       .  A
C570        H575   1.083       .  S
C571        C572   1.401       .  A
C572        H576   1.083       .  S
C577        C578   1.405       .  A
C577        C582   1.394       .  A
C577        H583   1.083       .  S
C578        C579   1.405       .  A
C579        C580   1.406       .  A
C579        H584   1.083       .  S
C580        C581   1.408       .  A
C580        H585   1.079       .  S
C581        C582   1.404       .  A
C582       H1818   1.083       .  S
H586       C1814   1.083   1_455  S
C587        C588   1.411       .  A
C587        C592   1.396       .  A
C587        H593   1.076       .  S
C588        C589   1.409       .  A
C589        C590   1.398       .  A
C589        H594   1.083       .  S
C590        C591   1.402       .  A
C590        H595   1.083       .  S
C591        C592   1.401       .  A
C592        H596   1.083       .  S
C597        C598   1.405       .  A
C597        C602   1.404       .  A
C597        H603   1.083       .  S
C598        C599   1.406       .  A
C599        C600   1.396       .  A
C599        H604   1.083       .  S
C600        C601   1.404       .  A
C600        H605   1.083       .  S
C601        C602   1.405       .  A
C602        H606   1.077       .  S
C607        C608   1.412       .  A
C607        C612   1.397       .  A
C607        H613   1.076       .  S
C608        C609   1.409       .  A
C609        C610   1.396       .  A
C609        H614   1.083       .  S
C610        C611   1.402       .  A
C610        H615   1.083       .  S
C611        C612   1.402       .  A
C612        H616   1.083       .  S
C617        C618   1.542       .  S
C617        C623   1.537       .  S
C617        C621   1.537       .  S
C617        C916   1.526       .  S
C618        H625   1.076       .  S
C618        C619   1.361       .  D
C619        C620   1.541       .  S
C619       C1001   1.477       .  S
C620        C624   1.539       .  S
C620        C622   1.544       .  S
C620        H626   1.111       .  S
C621        H627   1.086       .  S
C621        C622   1.365       .  D
C622        C634   1.475       .  S
C623        H628   1.087       .  S
C623        C624   1.363       .  D
C624        C909   1.489       .  S
C629        C630   1.542       .  S
C629        C633   1.537       .  S
C629        C896   1.527       .  S
C630        H637   1.079       .  S
C631       C1864   1.536   1_455  S
C631       C1013   1.471       .  S
C632       C1863   1.536       .  S
C632        C636   1.538       .  S
C632        H638   1.111       .  S
C633        H639   1.086       .  S
C633       C1866   1.366   1_455  D
C634       C1865   1.366       .  D
C635        H640   1.087       .  S
C635       C1868   1.365   1_455  D
C636       C1867   1.365       .  D
C636        C889   1.491       .  S
C641        C642   1.544       .  S
C641        C647   1.538       .  S
C641        C645   1.539       .  S
C641        C876   1.524       .  S
C642        H649   1.073       .  S
C642        C643   1.360       .  D
C643        C644   1.533       .  S
C643        C729   1.471       .  S
C644        C648   1.531       .  S
C644        C646   1.538       .  S
C644        H650   1.111       .  S
C645        H651   1.086       .  S
C645        C646   1.366       .  D
C646        C658   1.472       .  S
C647        H652   1.087       .  S
C647        C648   1.359       .  D
C648        C866   1.473       .  S
C653        C654   1.544       .  S
C653        C659   1.539       .  S
C653        C657   1.536       .  S
C653        C846   1.522       .  S
C654        H661   1.077       .  S
C654        C655   1.360       .  D
C655        C656   1.538       .  S
C655        C717   1.472       .  S
C656        C660   1.531       .  S
C656        C658   1.540       .  S
C656        H662   1.111       .  S
C657        H663   1.086       .  S
C657        C658   1.364       .  D
C659        H664   1.087       .  S
C659        C660   1.360       .  D
C660        C856   1.474       .  S
In665       O667   2.226       .  S
In665       O668   2.275       .  S
In665       O676   2.244       .  S
In665       O670   2.224       .  S
In665       O672   2.225       .  S
In665       O673   2.282       .  S
In665      O1906   2.240       .  S
In665       O677   2.216       .  S
C666       O1904   1.261   1_455  A
C666        O674   1.263       .  A
C666        C879   1.472       .  S
O667        C675   1.258       .  A
O668        C675   1.267       .  A
C669        O676   1.263       .  A
C669        O670   1.260       .  A
C669        C849   1.471       .  S
C671        O673   1.267       .  A
C671        O677   1.258       .  A
C671        C886   1.482       .  S
O672       C1898   1.261       .  A
O674      In1897   2.240   1_455  S
C675        C906   1.482       .  S
In678       O680   2.242       .  S
In678       O681   2.235       .  S
In678       O689   2.240       .  S
In678       O683   2.261       .  S
In678       O685   2.258       .  S
In678       O686   2.244       .  S
In678       O690   2.242       .  S
C679        O687   1.259       .  A
C679        C859   1.480       .  S
O680        C688   1.262       .  A
O681        C688   1.262       .  A
C682        O689   1.259       .  A
C682        O683   1.263       .  A
C682        C869   1.480       .  S
C684        O686   1.262       .  A
C684        O690   1.261       .  A
C684        C919   1.476       .  S
C688        C899   1.475       .  S
C691        C692   1.543       .  S
C691        C697   1.535       .  S
C691        C695   1.537       .  S
C691        C836   1.526       .  S
C692        H699   1.075   1_554  S
C692        C693   1.360       .  D
C693        C694   1.539       .  S
C693        C927   1.477   1_554  S
C694        C698   1.539       .  S
C694        C696   1.541       .  S
C694        H700   1.111       .  S
C695        H701   1.086       .  S
C695        C696   1.366       .  D
C696        C708   1.473       .  S
C697        H702   1.087       .  S
C697        C698   1.363       .  D
C698        C826   1.486       .  S
C703        C704   1.543       .  S
C703       C1941   1.540       .  S
C703        C707   1.537       .  S
C703        C816   1.523       .  S
C704        H711   1.077   1_554  S
C704       C1937   1.361       .  D
C705       C1936   1.361   1_455  D
C705        C939   1.470   1_554  S
C706        C710   1.531       .  S
C706       C1940   1.539   1_455  S
C706        H712   1.111       .  S
C707        H713   1.086       .  S
C708       C1938   1.539       .  S
C709       C1935   1.540   1_455  S
C709        H714   1.087       .  S
C710        C806   1.474       .  S
C715        C716   1.542       .  S
C715        C721   1.536       .  S
C715        C719   1.537       .  S
C715        C796   1.522       .  S
C716        H723   1.082       .  S
C716        C717   1.361       .  D
C717        C718   1.537       .  S
C718        C722   1.538       .  S
C718        C720   1.540       .  S
C718        H724   1.111       .  S
C719        H725   1.086       .  S
C719        C720   1.366       .  D
C720        C732   1.472       .  S
C721        H726   1.087       .  S
C721        C722   1.362       .  D
C722        C786   1.487       .  S
C727        C728   1.541       .  S
C727        C733   1.538       .  S
C727        C731   1.537       .  S
C727        C766   1.524       .  S
C728        H735   1.079       .  S
C728        C729   1.359       .  D
C729        C730   1.536       .  S
C730        C734   1.535       .  S
C730        C732   1.543       .  S
C730        H736   1.111       .  S
C731        H737   1.086       .  S
C731        C732   1.367       .  D
C733        H738   1.087       .  S
C733        C734   1.362       .  D
C734        C776   1.483       .  S
In739       O741   2.232       .  S
In739       O742   2.265       .  S
In739       O744   2.229       .  S
In739       O746   2.228       .  S
In739       O747   2.268       .  S
In739       O748   2.245       .  S
In739       O751   2.228       .  S
C740        O746   1.261       .  A
C740        O748   1.264       .  A
C740        C769   1.474       .  S
O741        C749   1.259       .  A
O742        C749   1.264       .  A
C743        O750   1.261       .  A
C743        C799   1.470       .  S
C745        O747   1.265       .  A
C745        O751   1.258       .  A
C745        C829   1.478       .  S
C749        C809   1.480       .  S
In752      O1986   2.227       .  S
In752       O755   2.267       .  S
In752       O763   2.247       .  S
In752       O757   2.226       .  S
In752       O759   2.229       .  S
In752       O760   2.273       .  S
In752       O761   2.239       .  S
In752       O764   2.226       .  S
C753        O759   1.262       .  A
C753        O761   1.263       .  A
C753        C819   1.472       .  S
O754      In1984   2.227   1_455  S
O754        C762   1.259       .  A
O755       C1994   1.266       .  A
C756        O763   1.262       .  A
C756        O757   1.261       .  A
C756        C839   1.473       .  S
C758        O760   1.266       .  A
C758        O764   1.259       .  A
C758        C789   1.481       .  S
C762       O1987   1.266   1_455  A
C762        C779   1.480       .  S
C765        C766   1.408       .  A
C765        C770   1.397       .  A
C765        H771   1.083       .  S
C766        C767   1.412       .  A
C767        C768   1.394       .  A
C767        H772   1.076       .  S
C768        C769   1.401       .  A
C768        H773   1.083       .  S
C769        C770   1.402       .  A
C770        H774   1.083       .  S
C775        C776   1.402       .  A
C775        C780   1.397       .  A
C775        H781   1.083       .  S
C776        C777   1.403       .  A
C777        C778   1.402       .  A
C777        H782   1.076       .  S
C778        C779   1.404       .  A
C778        H783   1.083       .  S
C779        C780   1.407       .  A
C780        H784   1.083       .  S
C785        C786   1.404       .  A
C785        C790   1.396       .  A
C785        H791   1.083       .  S
C786        C787   1.405       .  A
C787        C788   1.404       .  A
C787        H792   1.079       .  S
C788        C789   1.405       .  A
C788        H793   1.083       .  S
C789        C790   1.405       .  A
C790        H794   1.083       .  S
C795        C796   1.410       .  A
C795        C800   1.394       .  A
C795        H801   1.077       .  S
C796        C797   1.409       .  A
C797        C798   1.395       .  A
C797        H802   1.083       .  S
C798        C799   1.401       .  A
C798        H803   1.083       .  S
C799        C800   1.401       .  A
C800        H804   1.083       .  S
C805        C806   1.403       .  A
C805        C810   1.401       .  A
C805        H811   1.082       .  S
C806        C807   1.400       .  A
C807        C808   1.397       .  A
C807        H812   1.083       .  S
C808        C809   1.407       .  A
C808        H813   1.083       .  S
C809        C810   1.405       .  A
C810        H814   1.083       .  S
C815       C2048   1.409       .  A
C815       C2052   1.395       .  A
C815        H821   1.083       .  S
C816       C2047   1.409       .  A
C816        C817   1.410       .  A
C817        C818   1.395       .  A
C817        H822   1.077       .  S
C818        C819   1.402       .  A
C818        H823   1.083       .  S
C819        C820   1.401       .  A
C820       C2047   1.395       .  A
C820       H2056   1.083       .  S
H824       C2052   1.083       .  S
C825        C826   1.405       .  A
C825        C830   1.403       .  A
C825        H831   1.078       .  S
C826        C827   1.404       .  A
C827        C828   1.395       .  A
C827        H832   1.083       .  S
C828        C829   1.404       .  A
C828        H833   1.083       .  S
C829        C830   1.404       .  A
C830        H834   1.083       .  S
C835        C836   1.410       .  A
C835        C840   1.398       .  A
C835        H841   1.083       .  S
C836        C837   1.411       .  A
C837        C838   1.394       .  A
C837        H842   1.076       .  S
C838        C839   1.401       .  A
C838        H843   1.083       .  S
C839        C840   1.402       .  A
C840        H844   1.083       .  S
C845        C846   1.409       .  A
C845        C850   1.396       .  A
C845        H851   1.083       .  S
C846        C847   1.410       .  A
C847        C848   1.394       .  A
C847        H852   1.076       .  S
C848        C849   1.402       .  A
C848        H853   1.083       .  S
C849        C850   1.401       .  A
C850        H854   1.083       .  S
C855        C856   1.400       .  A
C855        C860   1.400       .  A
C855        H861   1.083       .  S
C856        C857   1.402       .  A
C857        C858   1.399       .  A
C857        H862   1.083       .  S
C858        C859   1.405       .  A
C858        H863   1.083       .  S
C859        C860   1.408       .  A
C860        H864   1.083       .  S
C865        C866   1.402       .  A
C865        C870   1.400       .  A
C865        H871   1.082       .  S
C866        C867   1.400       .  A
C867        C868   1.398       .  A
C867        H872   1.083       .  S
C868        C869   1.407       .  A
C868        H873   1.083       .  S
C869        C870   1.405       .  A
C870        H874   1.083       .  S
C875        C876   1.411       .  A
C875        C880   1.395       .  A
C875        H881   1.076       .  S
C876        C877   1.409       .  A
C877        C878   1.396       .  A
C877        H882   1.083       .  S
C878        C879   1.401       .  A
C878        H883   1.083       .  S
C879        C880   1.401       .  A
C880        H884   1.083       .  S
C885        C886   1.405       .  A
C885        C890   1.394       .  A
C885        H891   1.083       .  S
C886        C887   1.405       .  A
C887        C888   1.406       .  A
C887        H892   1.083       .  S
C888        C889   1.408       .  A
C888        H893   1.079       .  S
C889        C890   1.404       .  A
C890       H2126   1.083       .  S
H894       C2122   1.083   1_455  S
C895        C896   1.411       .  A
C895        C900   1.396       .  A
C895        H901   1.076       .  S
C896        C897   1.409       .  A
C897        C898   1.398       .  A
C897        H902   1.083       .  S
C898        C899   1.402       .  A
C898        H903   1.083       .  S
C899        C900   1.401       .  A
C900        H904   1.083       .  S
C905        C906   1.405       .  A
C905        C910   1.404       .  A
C905        H911   1.083       .  S
C906        C907   1.406       .  A
C907        C908   1.396       .  A
C907        H912   1.083       .  S
C908        C909   1.404       .  A
C908        H913   1.083       .  S
C909        C910   1.405       .  A
C910        H914   1.078       .  S
C915        C916   1.412       .  A
C915        C920   1.397       .  A
C915        H921   1.076       .  S
C916        C917   1.409       .  A
C917        C918   1.396       .  A
C917        H922   1.083       .  S
C918        C919   1.402       .  A
C918        H923   1.083       .  S
C919        C920   1.402       .  A
C920        H924   1.083       .  S
C925        C926   1.542       .  S
C925        C931   1.537       .  S
C925        C929   1.537       .  S
C925       C1224   1.526       .  S
C926        H933   1.076       .  S
C926        C927   1.361       .  D
C927        C928   1.541       .  S
C928        C932   1.539       .  S
C928        C930   1.544       .  S
C928        H934   1.111       .  S
C929        H935   1.086       .  S
C929        C930   1.365       .  D
C930        C942   1.475       .  S
C931        H936   1.087       .  S
C931        C932   1.363       .  D
C932       C1217   1.489       .  S
C937        C938   1.542       .  S
C937        C941   1.537       .  S
C937       C1204   1.526       .  S
C938        H945   1.079       .  S
C939       C2172   1.536   1_455  S
C940       C2171   1.536       .  S
C940        C944   1.538       .  S
C940        H946   1.111       .  S
C941        H947   1.086       .  S
C941       C2174   1.366   1_455  D
C942       C2173   1.366       .  D
C943        H948   1.087       .  S
C943       C2176   1.365   1_455  D
C944       C2175   1.365       .  D
C944       C1197   1.491       .  S
C949        C950   1.544       .  S
C949        C955   1.538       .  S
C949        C953   1.539       .  S
C949       C1184   1.524       .  S
C950        H957   1.073       .  S
C950        C951   1.360       .  D
C951        C952   1.533       .  S
C951       C1037   1.471       .  S
C952        C956   1.531       .  S
C952        C954   1.538       .  S
C952        H958   1.111       .  S
C953        H959   1.086       .  S
C953        C954   1.366       .  D
C954        C966   1.472       .  S
C955        H960   1.087       .  S
C955        C956   1.359       .  D
C956       C1174   1.473       .  S
C961        C962   1.544       .  S
C961        C967   1.539       .  S
C961        C965   1.536       .  S
C961       C1154   1.522       .  S
C962        H969   1.077       .  S
C962        C963   1.360       .  D
C963        C964   1.538       .  S
C963       C1025   1.472       .  S
C964        C968   1.531       .  S
C964        C966   1.540       .  S
C964        H970   1.111       .  S
C965        H971   1.086       .  S
C965        C966   1.364       .  D
C967        H972   1.087       .  S
C967        C968   1.360       .  D
C968       C1164   1.474       .  S
In973       O975   2.226       .  S
In973       O976   2.275       .  S
In973       O984   2.243       .  S
In973       O978   2.224       .  S
In973       O980   2.224       .  S
In973       O981   2.282       .  S
In973      O2214   2.240       .  S
In973       O985   2.216       .  S
C974       O2212   1.261   1_455  A
C974        O982   1.263       .  A
C974       C1187   1.472       .  S
O975        C983   1.258       .  A
O976        C983   1.267       .  A
C977        O984   1.263       .  A
C977        O978   1.260       .  A
C977       C1157   1.471       .  S
C979        O981   1.267       .  A
C979        O985   1.258       .  A
C979       C1194   1.482       .  S
O980       C2206   1.261       .  A
O982      In2205   2.240   1_455  S
C983       C1214   1.482       .  S
In986       O988   2.242       .  S
In986       O989   2.235       .  S
In986       O997   2.240       .  S
In986       O991   2.261       .  S
In986       O993   2.258       .  S
In986       O994   2.244       .  S
In986       O998   2.242       .  S
C987        O995   1.259       .  A
C987       C1167   1.480       .  S
O988        C996   1.262       .  A
O989        C996   1.262       .  A
C990        O997   1.259       .  A
C990        O991   1.263       .  A
C990       C1177   1.480       .  S
C992        O994   1.262       .  A
C992        O998   1.261       .  A
C992       C1227   1.476       .  S
C996       C1207   1.475       .  S
C999       C1000   1.543       .  S
C999       C1005   1.535       .  S
C999       C1003   1.537       .  S
C999       C1144   1.526       .  S
C1000      H1007   1.075       .  S
C1000      C1001   1.360       .  D
C1001      C1002   1.539       .  S
C1002      C1006   1.539       .  S
C1002      C1004   1.541       .  S
C1002      H1008   1.111       .  S
C1003      H1009   1.086       .  S
C1003      C1004   1.366       .  D
C1004      C1016   1.473       .  S
C1005      H1010   1.087       .  S
C1005      C1006   1.363       .  D
C1006      C1134   1.487       .  S
C1011      C1012   1.543       .  S
C1011      C2249   1.540       .  S
C1011      C1015   1.537       .  S
C1011      C1124   1.523       .  S
C1012      H1019   1.077       .  S
C1012      C2245   1.361       .  D
C1013      C2244   1.361   1_455  D
C1014      C1018   1.532       .  S
C1014      C2248   1.539   1_455  S
C1014      H1020   1.111       .  S
C1015      H1021   1.086       .  S
C1016      C2246   1.539       .  S
C1017      C2243   1.540   1_455  S
C1017      H1022   1.087       .  S
C1018      C1114   1.474       .  S
C1023      C1024   1.542       .  S
C1023      C1029   1.536       .  S
C1023      C1027   1.537       .  S
C1023      C1104   1.521       .  S
C1024      H1031   1.082       .  S
C1024      C1025   1.361       .  D
C1025      C1026   1.537       .  S
C1026      C1030   1.538       .  S
C1026      C1028   1.540       .  S
C1026      H1032   1.111       .  S
C1027      H1033   1.086       .  S
C1027      C1028   1.366       .  D
C1028      C1040   1.472       .  S
C1029      H1034   1.087       .  S
C1029      C1030   1.362       .  D
C1030      C1094   1.487       .  S
C1035      C1036   1.541       .  S
C1035      C1041   1.538       .  S
C1035      C1039   1.537       .  S
C1035      C1074   1.524       .  S
C1036      H1043   1.079       .  S
C1036      C1037   1.359       .  D
C1037      C1038   1.536       .  S
C1038      C1042   1.535       .  S
C1038      C1040   1.543       .  S
C1038      H1044   1.111       .  S
C1039      H1045   1.086       .  S
C1039      C1040   1.367       .  D
C1041      H1046   1.087       .  S
C1041      C1042   1.362       .  D
C1042      C1084   1.483       .  S
In1047     O1049   2.233       .  S
In1047     O1050   2.265       .  S
In1047     O1052   2.229       .  S
In1047     O1054   2.228       .  S
In1047     O1055   2.268       .  S
In1047     O1056   2.245       .  S
In1047     O1059   2.228       .  S
C1048      O1054   1.261       .  A
C1048      O1056   1.264       .  A
C1048      C1077   1.474       .  S
O1049      C1057   1.259       .  A
O1050      C1057   1.264       .  A
C1051      O1058   1.261       .  A
C1051      C1107   1.470       .  S
C1053      O1055   1.265       .  A
C1053      O1059   1.258       .  A
C1053      C1137   1.478       .  S
C1057      C1117   1.480       .  S
In1060     O2294   2.227       .  S
In1060     O1063   2.267       .  S
In1060     O1071   2.248       .  S
In1060     O1065   2.226       .  S
In1060     O1067   2.229       .  S
In1060     O1068   2.273       .  S
In1060     O1069   2.239       .  S
In1060     O1072   2.226       .  S
C1061      O1067   1.262       .  A
C1061      O1069   1.263       .  A
C1061      C1127   1.472       .  S
O1062     In2292   2.227   1_455  S
O1062      C1070   1.259       .  A
O1063      C2302   1.266       .  A
C1064      O1071   1.262       .  A
C1064      O1065   1.261       .  A
C1064      C1147   1.473       .  S
C1066      O1068   1.266       .  A
C1066      O1072   1.259       .  A
C1066      C1097   1.481       .  S
C1070      O2295   1.266   1_455  A
C1070      C1087   1.480       .  S
C1073      C1074   1.408       .  A
C1073      C1078   1.397       .  A
C1073      H1079   1.083       .  S
C1074      C1075   1.412       .  A
C1075      C1076   1.394       .  A
C1075      H1080   1.076       .  S
C1076      C1077   1.401       .  A
C1076      H1081   1.083       .  S
C1077      C1078   1.402       .  A
C1078      H1082   1.083       .  S
C1083      C1084   1.402       .  A
C1083      C1088   1.397       .  A
C1083      H1089   1.083       .  S
C1084      C1085   1.403       .  A
C1085      C1086   1.402       .  A
C1085      H1090   1.076       .  S
C1086      C1087   1.404       .  A
C1086      H1091   1.083       .  S
C1087      C1088   1.407       .  A
C1088      H1092   1.083       .  S
C1093      C1094   1.404       .  A
C1093      C1098   1.396       .  A
C1093      H1099   1.083       .  S
C1094      C1095   1.405       .  A
C1095      C1096   1.404       .  A
C1095      H1100   1.079       .  S
C1096      C1097   1.405       .  A
C1096      H1101   1.083       .  S
C1097      C1098   1.405       .  A
C1098      H1102   1.083       .  S
C1103      C1104   1.410       .  A
C1103      C1108   1.394       .  A
C1103      H1109   1.077       .  S
C1104      C1105   1.409       .  A
C1105      C1106   1.395       .  A
C1105      H1110   1.083       .  S
C1106      C1107   1.401       .  A
C1106      H1111   1.083       .  S
C1107      C1108   1.401       .  A
C1108      H1112   1.083       .  S
C1113      C1114   1.403       .  A
C1113      C1118   1.401       .  A
C1113      H1119   1.082       .  S
C1114      C1115   1.400       .  A
C1115      C1116   1.397       .  A
C1115      H1120   1.083       .  S
C1116      C1117   1.407       .  A
C1116      H1121   1.083       .  S
C1117      C1118   1.405       .  A
C1118      H1122   1.083       .  S
C1123      C2356   1.409       .  A
C1123      C2360   1.395       .  A
C1123      H1129   1.083       .  S
C1124      C2355   1.409       .  A
C1124      C1125   1.411       .  A
C1125      C1126   1.396       .  A
C1125      H1130   1.077       .  S
C1126      C1127   1.402       .  A
C1126      H1131   1.083       .  S
C1127      C1128   1.401       .  A
C1128      C2355   1.395       .  A
C1128      H2364   1.083       .  S
H1132      C2360   1.083       .  S
C1133      C1134   1.405       .  A
C1133      C1138   1.403       .  A
C1133      H1139   1.078       .  S
C1134      C1135   1.404       .  A
C1135      C1136   1.395       .  A
C1135      H1140   1.083       .  S
C1136      C1137   1.404       .  A
C1136      H1141   1.083       .  S
C1137      C1138   1.404       .  A
C1138      H1142   1.083       .  S
C1143      C1144   1.410       .  A
C1143      C1148   1.398       .  A
C1143      H1149   1.083       .  S
C1144      C1145   1.411       .  A
C1145      C1146   1.394       .  A
C1145      H1150   1.076       .  S
C1146      C1147   1.401       .  A
C1146      H1151   1.083       .  S
C1147      C1148   1.402       .  A
C1148      H1152   1.083       .  S
C1153      C1154   1.409       .  A
C1153      C1158   1.396       .  A
C1153      H1159   1.083       .  S
C1154      C1155   1.410       .  A
C1155      C1156   1.394       .  A
C1155      H1160   1.076       .  S
C1156      C1157   1.402       .  A
C1156      H1161   1.083       .  S
C1157      C1158   1.401       .  A
C1158      H1162   1.083       .  S
C1163      C1164   1.400       .  A
C1163      C1168   1.400       .  A
C1163      H1169   1.083       .  S
C1164      C1165   1.402       .  A
C1165      C1166   1.399       .  A
C1165      H1170   1.083       .  S
C1166      C1167   1.405       .  A
C1166      H1171   1.083       .  S
C1167      C1168   1.408       .  A
C1168      H1172   1.083       .  S
C1173      C1174   1.402       .  A
C1173      C1178   1.400       .  A
C1173      H1179   1.082       .  S
C1174      C1175   1.400       .  A
C1175      C1176   1.398       .  A
C1175      H1180   1.083       .  S
C1176      C1177   1.407       .  A
C1176      H1181   1.083       .  S
C1177      C1178   1.405       .  A
C1178      H1182   1.083       .  S
C1183      C1184   1.411       .  A
C1183      C1188   1.395       .  A
C1183      H1189   1.076       .  S
C1184      C1185   1.409       .  A
C1185      C1186   1.396       .  A
C1185      H1190   1.083       .  S
C1186      C1187   1.401       .  A
C1186      H1191   1.083       .  S
C1187      C1188   1.401       .  A
C1188      H1192   1.083       .  S
C1193      C1194   1.405       .  A
C1193      C1198   1.394       .  A
C1193      H1199   1.083       .  S
C1194      C1195   1.405       .  A
C1195      C1196   1.406       .  A
C1195      H1200   1.083       .  S
C1196      C1197   1.408       .  A
C1196      H1201   1.079       .  S
C1197      C1198   1.404       .  A
C1198      H2434   1.083       .  S
H1202      C2430   1.083   1_455  S
C1203      C1204   1.411       .  A
C1203      C1208   1.396       .  A
C1203      H1209   1.076       .  S
C1204      C1205   1.409       .  A
C1205      C1206   1.397       .  A
C1205      H1210   1.083       .  S
C1206      C1207   1.402       .  A
C1206      H1211   1.083       .  S
C1207      C1208   1.401       .  A
C1208      H1212   1.083       .  S
C1213      C1214   1.405       .  A
C1213      C1218   1.404       .  A
C1213      H1219   1.083       .  S
C1214      C1215   1.406       .  A
C1215      C1216   1.396       .  A
C1215      H1220   1.083       .  S
C1216      C1217   1.404       .  A
C1216      H1221   1.083       .  S
C1217      C1218   1.405       .  A
C1218      H1222   1.077       .  S
C1223      C1224   1.412       .  A
C1223      C1228   1.397       .  A
C1223      H1229   1.076       .  S
C1224      C1225   1.409       .  A
C1225      C1226   1.396       .  A
C1225      H1230   1.083       .  S
C1226      C1227   1.402       .  A
C1226      H1231   1.083       .  S
C1227      C1228   1.402       .  A
C1228      H1232   1.083       .  S
C1233      C1234   1.542       .  S
C1233      C1239   1.537       .  S
C1233      C1237   1.537       .  S
C1233      C1532   1.526       .  S
C1234      H1241   1.076       .  S
C1234      C1235   1.361       .  D
C1235      C1236   1.541       .  S
C1235      C1617   1.477       .  S
C1236      C1240   1.539       .  S
C1236      C1238   1.544       .  S
C1236      H1242   1.111       .  S
C1237      H1243   1.086       .  S
C1237      C1238   1.365       .  D
C1238      C1250   1.475       .  S
C1239      H1244   1.087       .  S
C1239      C1240   1.363       .  D
C1240      C1525   1.489       .  S
C1245      C1246   1.542       .  S
C1245      C1867   1.537       .  S
C1245      C1249   1.537       .  S
C1245      C1512   1.526       .  S
C1246      H1253   1.079       .  S
C1246      C1863   1.360       .  D
C1247      C1862   1.360       .  D
C1247      C1629   1.471   1_565  S
C1248      C1252   1.538       .  S
C1248      C1866   1.543   1_545  S
C1248      H1254   1.111       .  S
C1249      H1255   1.086       .  S
C1250      C1864   1.543       .  S
C1251      C1861   1.537   1_545  S
C1251      H1256   1.087       .  S
C1252      C1505   1.491       .  S
C1257      C1258   1.544       .  S
C1257      C1263   1.538       .  S
C1257      C1261   1.539       .  S
C1257      C1492   1.524       .  S
C1258      H1265   1.073       .  S
C1258      C1259   1.360       .  D
C1259      C1260   1.533       .  S
C1259      C1345   1.471       .  S
C1260      C1264   1.531       .  S
C1260      C1262   1.538       .  S
C1260      H1266   1.111       .  S
C1261      H1267   1.086       .  S
C1261      C1262   1.366       .  D
C1262      C1274   1.472       .  S
C1263      H1268   1.087       .  S
C1263      C1264   1.359       .  D
C1264      C1482   1.473       .  S
C1269      C1270   1.544       .  S
C1269      C1275   1.539       .  S
C1269      C1273   1.536       .  S
C1269      C1462   1.522       .  S
C1270      H1277   1.077       .  S
C1270      C1271   1.360       .  D
C1271      C1272   1.538       .  S
C1271      C1333   1.472       .  S
C1272      C1276   1.531       .  S
C1272      C1274   1.540       .  S
C1272      H1278   1.111       .  S
C1273      H1279   1.086       .  S
C1273      C1274   1.364       .  D
C1275      H1280   1.087       .  S
C1275      C1276   1.360       .  D
C1276      C1472   1.474       .  S
In1281     O1283   2.226       .  S
In1281     O1284   2.275       .  S
In1281     O1292   2.244       .  S
In1281     O1286   2.224       .  S
In1281     O1288   2.225       .  S
In1281     O1289   2.282       .  S
In1281     O1293   2.216       .  S
C1282      O1290   1.263       .  A
C1282      C1495   1.472       .  S
O1283      C1291   1.258       .  A
O1284      C1291   1.267       .  A
C1285      O1292   1.263       .  A
C1285      O1286   1.260       .  A
C1285      C1465   1.471       .  S
C1287      O1289   1.267       .  A
C1287      O1293   1.258       .  A
C1287      C1502   1.482       .  S
C1291      C1522   1.482       .  S
In1294     O1296   2.242       .  S
In1294     O1297   2.235       .  S
In1294     O1305   2.240       .  S
In1294     O1299   2.261       .  S
In1294     O1301   2.258       .  S
In1294     O1302   2.244       .  S
In1294     O1919   2.247       .  S
In1294     O1306   2.242       .  S
C1295      O1917   1.262   1_545  A
C1295      O1303   1.259       .  A
C1295      C1475   1.480       .  S
O1296      C1304   1.262       .  A
O1297      C1304   1.262       .  A
C1298      O1305   1.259       .  A
C1298      O1299   1.263       .  A
C1298      C1485   1.480       .  S
C1300      O1302   1.262       .  A
C1300      O1306   1.261       .  A
C1300      C1535   1.476       .  S
O1301      C1911   1.262       .  A
O1303     In1910   2.247   1_545  S
C1304      C1515   1.475       .  S
C1307      C1308   1.543       .  S
C1307      C1313   1.535       .  S
C1307      C1311   1.537       .  S
C1307      C1452   1.526       .  S
C1308      H1315   1.075   1_554  S
C1308      C1309   1.360       .  D
C1309      C1310   1.539       .  S
C1309      C1543   1.477   1_554  S
C1310      C1314   1.539       .  S
C1310      C1312   1.541       .  S
C1310      H1316   1.111       .  S
C1311      H1317   1.086       .  S
C1311      C1312   1.366       .  D
C1312      C1324   1.473       .  S
C1313      H1318   1.087       .  S
C1313      C1314   1.363       .  D
C1314      C1442   1.486       .  S
C1319      C1320   1.543       .  S
C1319      C1323   1.537       .  S
C1319      C1432   1.523       .  S
C1320      H1327   1.077   1_554  S
C1321      C1938   1.535   1_545  S
C1321      C1555   1.470   1_544  S
C1322      C1937   1.535       .  S
C1322      C1326   1.531       .  S
C1322      H1328   1.111       .  S
C1323      H1329   1.086       .  S
C1323      C1940   1.365   1_545  D
C1324      C1939   1.365       .  D
C1325      H1330   1.087       .  S
C1325      C1942   1.360   1_545  D
C1326      C1941   1.360       .  D
C1326      C1422   1.474       .  S
C1331      C1332   1.542       .  S
C1331      C1337   1.536       .  S
C1331      C1335   1.537       .  S
C1331      C1412   1.522       .  S
C1332      H1339   1.082       .  S
C1332      C1333   1.361       .  D
C1333      C1334   1.537       .  S
C1334      C1338   1.538       .  S
C1334      C1336   1.540       .  S
C1334      H1340   1.111       .  S
C1335      H1341   1.086       .  S
C1335      C1336   1.366       .  D
C1336      C1348   1.472       .  S
C1337      H1342   1.087       .  S
C1337      C1338   1.362       .  D
C1338      C1402   1.487       .  S
C1343      C1344   1.541       .  S
C1343      C1349   1.538       .  S
C1343      C1347   1.537       .  S
C1343      C1382   1.524       .  S
C1344      H1351   1.079       .  S
C1344      C1345   1.359       .  D
C1345      C1346   1.536       .  S
C1346      C1350   1.535       .  S
C1346      C1348   1.543       .  S
C1346      H1352   1.111       .  S
C1347      H1353   1.086       .  S
C1347      C1348   1.367       .  D
C1349      H1354   1.087       .  S
C1349      C1350   1.362       .  D
C1350      C1392   1.483       .  S
In1355     O1357   2.232       .  S
In1355     O1358   2.265       .  S
In1355     O1982   2.242       .  S
In1355     O1360   2.229       .  S
In1355     O1362   2.228       .  S
In1355     O1363   2.268       .  S
In1355     O1364   2.245       .  S
In1355     O1367   2.228       .  S
C1356      O1362   1.261       .  A
C1356      O1364   1.264       .  A
C1356      C1385   1.474       .  S
O1357      C1365   1.259       .  A
O1358      C1365   1.264       .  A
C1359      O1366   1.261       .  A
C1359      O1976   1.259   1_545  A
C1359      C1415   1.470       .  S
O1360      C1975   1.259       .  A
C1361      O1363   1.265       .  A
C1361      O1367   1.258       .  A
C1361      C1445   1.478       .  S
C1365      C1425   1.480       .  S
O1366     In1971   2.242   1_545  S
In1368     O1371   2.267       .  S
In1368     O1379   2.247       .  S
In1368     O1373   2.226       .  S
In1368     O1375   2.229       .  S
In1368     O1376   2.273       .  S
In1368     O1377   2.239       .  S
In1368     O1380   2.226       .  S
C1369      O1375   1.262       .  A
C1369      O1377   1.263       .  A
C1369      C1435   1.472       .  S
O1370      C1378   1.259       .  A
C1372      O1379   1.262       .  A
C1372      O1373   1.261       .  A
C1372      C1455   1.473       .  S
C1374      O1376   1.266       .  A
C1374      O1380   1.259       .  A
C1374      C1405   1.481       .  S
C1378      C1395   1.480       .  S
C1381      C1382   1.408       .  A
C1381      C1386   1.397       .  A
C1381      H1387   1.083       .  S
C1382      C1383   1.412       .  A
C1383      C1384   1.394       .  A
C1383      H1388   1.076       .  S
C1384      C1385   1.401       .  A
C1384      H1389   1.083       .  S
C1385      C1386   1.402       .  A
C1386      H1390   1.083       .  S
C1391      C1392   1.402       .  A
C1391      C1396   1.397       .  A
C1391      H1397   1.083       .  S
C1392      C1393   1.403       .  A
C1393      C1394   1.402       .  A
C1393      H1398   1.076       .  S
C1394      C1395   1.404       .  A
C1394      H1399   1.083       .  S
C1395      C1396   1.407       .  A
C1396      H1400   1.083       .  S
C1401      C1402   1.404       .  A
C1401      C1406   1.396       .  A
C1401      H1407   1.083       .  S
C1402      C1403   1.405       .  A
C1403      C1404   1.404       .  A
C1403      H1408   1.079       .  S
C1404      C1405   1.405       .  A
C1404      H1409   1.083       .  S
C1405      C1406   1.405       .  A
C1406      H1410   1.083       .  S
C1411      C1412   1.410       .  A
C1411      C1416   1.394       .  A
C1411      H1417   1.077       .  S
C1412      C1413   1.409       .  A
C1413      C1414   1.395       .  A
C1413      H1418   1.083       .  S
C1414      C1415   1.401       .  A
C1414      H1419   1.083       .  S
C1415      C1416   1.401       .  A
C1416      H1420   1.083       .  S
C1421      C1422   1.403       .  A
C1421      C1426   1.401       .  A
C1421      H1427   1.082       .  S
C1422      C1423   1.400       .  A
C1423      C1424   1.397       .  A
C1423      H1428   1.083       .  S
C1424      C1425   1.407       .  A
C1424      H1429   1.083       .  S
C1425      C1426   1.405       .  A
C1426      H1430   1.083       .  S
C1431      H1437   1.083       .  S
C1432      C1433   1.410       .  A
C1433      C1434   1.395       .  A
C1433      H1438   1.077       .  S
C1434      C1435   1.402       .  A
C1434      H1439   1.083       .  S
C1435      C1436   1.401       .  A
C1441      C1442   1.405       .  A
C1441      C1446   1.403       .  A
C1441      H1447   1.078       .  S
C1442      C1443   1.404       .  A
C1443      C1444   1.395       .  A
C1443      H1448   1.083       .  S
C1444      C1445   1.404       .  A
C1444      H1449   1.083       .  S
C1445      C1446   1.404       .  A
C1446      H1450   1.083       .  S
C1451      C1452   1.410       .  A
C1451      C1456   1.398       .  A
C1451      H1457   1.083       .  S
C1452      C1453   1.411       .  A
C1453      C1454   1.394       .  A
C1453      H1458   1.076       .  S
C1454      C1455   1.401       .  A
C1454      H1459   1.083       .  S
C1455      C1456   1.402       .  A
C1456      H1460   1.083       .  S
C1461      C1462   1.409       .  A
C1461      C1466   1.396       .  A
C1461      H1467   1.083       .  S
C1462      C1463   1.410       .  A
C1463      C1464   1.394       .  A
C1463      H1468   1.076       .  S
C1464      C1465   1.402       .  A
C1464      H1469   1.083       .  S
C1465      C1466   1.401       .  A
C1466      H1470   1.083       .  S
C1471      C1472   1.400       .  A
C1471      C1476   1.400       .  A
C1471      H1477   1.083       .  S
C1472      C1473   1.402       .  A
C1473      C1474   1.399       .  A
C1473      H1478   1.083       .  S
C1474      C1475   1.405       .  A
C1474      H1479   1.083       .  S
C1475      C1476   1.408       .  A
C1476      H1480   1.083       .  S
C1481      C1482   1.402       .  A
C1481      C1486   1.400       .  A
C1481      H1487   1.082       .  S
C1482      C1483   1.400       .  A
C1483      C1484   1.398       .  A
C1483      H1488   1.083       .  S
C1484      C1485   1.407       .  A
C1484      H1489   1.083       .  S
C1485      C1486   1.405       .  A
C1486      H1490   1.083       .  S
C1491      C1492   1.411       .  A
C1491      C1496   1.394       .  A
C1491      H1497   1.076       .  S
C1492      C1493   1.409       .  A
C1493      C1494   1.396       .  A
C1493      H1498   1.083       .  S
C1494      C1495   1.401       .  A
C1494      H1499   1.083       .  S
C1495      C1496   1.401       .  A
C1496      H1500   1.083       .  S
C1501      C1502   1.405       .  A
C1501      C1506   1.394       .  A
C1501      H1507   1.083       .  S
C1502      C1503   1.405       .  A
C1503      C1504   1.406       .  A
C1503      H1508   1.083       .  S
C1504      C1505   1.408       .  A
C1504      H1509   1.079       .  S
C1505      C1506   1.404       .  A
C1511      C1512   1.411       .  A
C1511      C1516   1.396       .  A
C1511      H1517   1.076       .  S
C1512      C1513   1.409       .  A
C1513      C1514   1.398       .  A
C1513      H1518   1.083       .  S
C1514      C1515   1.402       .  A
C1514      H1519   1.083       .  S
C1515      C1516   1.401       .  A
C1516      H1520   1.083       .  S
C1521      C1522   1.405       .  A
C1521      C1526   1.404       .  A
C1521      H1527   1.083       .  S
C1522      C1523   1.406       .  A
C1523      C1524   1.396       .  A
C1523      H1528   1.083       .  S
C1524      C1525   1.404       .  A
C1524      H1529   1.083       .  S
C1525      C1526   1.405       .  A
C1526      H1530   1.078       .  S
C1531      C1532   1.412       .  A
C1531      C1536   1.397       .  A
C1531      H1537   1.076       .  S
C1532      C1533   1.409       .  A
C1533      C1534   1.396       .  A
C1533      H1538   1.083       .  S
C1534      C1535   1.402       .  A
C1534      H1539   1.083       .  S
C1535      C1536   1.402       .  A
C1536      H1540   1.083       .  S
C1541      C1542   1.542       .  S
C1541      C1547   1.537       .  S
C1541      C1545   1.537       .  S
C1541      C1840   1.526       .  S
C1542      H1549   1.076       .  S
C1542      C1543   1.361       .  D
C1543      C1544   1.541       .  S
C1544      C1548   1.539       .  S
C1544      C1546   1.544       .  S
C1544      H1550   1.111       .  S
C1545      H1551   1.086       .  S
C1545      C1546   1.365       .  D
C1546      C1558   1.475       .  S
C1547      H1552   1.087       .  S
C1547      C1548   1.363       .  D
C1548      C1833   1.489       .  S
C1553      C1554   1.542       .  S
C1553      C2175   1.537       .  S
C1553      C1557   1.537       .  S
C1553      C1820   1.526       .  S
C1554      H1561   1.079       .  S
C1554      C2171   1.360       .  D
C1555      C2170   1.360       .  D
C1556      C1560   1.538       .  S
C1556      C2174   1.542   1_545  S
C1556      H1562   1.111       .  S
C1557      H1563   1.086       .  S
C1558      C2172   1.542       .  S
C1559      C2169   1.537   1_545  S
C1559      H1564   1.087       .  S
C1560      C1813   1.491       .  S
C1565      C1566   1.544       .  S
C1565      C1571   1.538       .  S
C1565      C1569   1.539       .  S
C1565      C1800   1.524       .  S
C1566      H1573   1.073       .  S
C1566      C1567   1.360       .  D
C1567      C1568   1.533       .  S
C1567      C1653   1.471       .  S
C1568      C1572   1.531       .  S
C1568      C1570   1.538       .  S
C1568      H1574   1.111       .  S
C1569      H1575   1.086       .  S
C1569      C1570   1.366       .  D
C1570      C1582   1.472       .  S
C1571      H1576   1.087       .  S
C1571      C1572   1.359       .  D
C1572      C1790   1.473       .  S
C1577      C1578   1.544       .  S
C1577      C1583   1.539       .  S
C1577      C1581   1.536       .  S
C1577      C1770   1.522       .  S
C1578      H1585   1.077       .  S
C1578      C1579   1.360       .  D
C1579      C1580   1.538       .  S
C1579      C1641   1.472       .  S
C1580      C1584   1.531       .  S
C1580      C1582   1.540       .  S
C1580      H1586   1.111       .  S
C1581      H1587   1.086       .  S
C1581      C1582   1.364       .  D
C1583      H1588   1.087       .  S
C1583      C1584   1.360       .  D
C1584      C1780   1.474       .  S
In1589     O1591   2.226       .  S
In1589     O1592   2.275       .  S
In1589     O1600   2.243       .  S
In1589     O1594   2.224       .  S
In1589     O1596   2.224       .  S
In1589     O1597   2.282       .  S
In1589     O1601   2.216       .  S
C1590      O1598   1.263       .  A
C1590      C1803   1.472       .  S
O1591      C1599   1.258       .  A
O1592      C1599   1.267       .  A
C1593      O1600   1.263       .  A
C1593      O1594   1.260       .  A
C1593      C1773   1.471       .  S
C1595      O1597   1.267       .  A
C1595      O1601   1.258       .  A
C1595      C1810   1.482       .  S
C1599      C1830   1.482       .  S
In1602     O1604   2.242       .  S
In1602     O1605   2.235       .  S
In1602     O1613   2.240       .  S
In1602     O1607   2.261       .  S
In1602     O1609   2.258       .  S
In1602     O1610   2.244       .  S
In1602     O2227   2.247       .  S
In1602     O1614   2.242       .  S
C1603      O2225   1.262   1_545  A
C1603      O1611   1.259       .  A
C1603      C1783   1.480       .  S
O1604      C1612   1.262       .  A
O1605      C1612   1.262       .  A
C1606      O1613   1.259       .  A
C1606      O1607   1.263       .  A
C1606      C1793   1.480       .  S
C1608      O1610   1.262       .  A
C1608      O1614   1.261       .  A
C1608      C1843   1.476       .  S
O1609      C2219   1.262       .  A
O1611     In2218   2.247   1_545  S
C1612      C1823   1.475       .  S
C1615      C1616   1.543       .  S
C1615      C1621   1.535       .  S
C1615      C1619   1.537       .  S
C1615      C1760   1.526       .  S
C1616      H1623   1.075       .  S
C1616      C1617   1.360       .  D
C1617      C1618   1.539       .  S
C1618      C1622   1.539       .  S
C1618      C1620   1.541       .  S
C1618      H1624   1.111       .  S
C1619      H1625   1.086       .  S
C1619      C1620   1.366       .  D
C1620      C1632   1.473       .  S
C1621      H1626   1.087       .  S
C1621      C1622   1.363       .  D
C1622      C1750   1.487       .  S
C1627      C1628   1.543       .  S
C1627      C1631   1.537       .  S
C1627      C1740   1.523       .  S
C1628      H1635   1.077       .  S
C1629      C2246   1.535   1_545  S
C1630      C2245   1.535       .  S
C1630      C1634   1.531       .  S
C1630      H1636   1.111       .  S
C1631      H1637   1.086       .  S
C1631      C2248   1.365   1_545  D
C1632      C2247   1.365       .  D
C1633      H1638   1.087       .  S
C1633      C2250   1.360   1_545  D
C1634      C2249   1.360       .  D
C1634      C1730   1.474       .  S
C1639      C1640   1.542       .  S
C1639      C1645   1.536       .  S
C1639      C1643   1.537       .  S
C1639      C1720   1.521       .  S
C1640      H1647   1.082       .  S
C1640      C1641   1.361       .  D
C1641      C1642   1.537       .  S
C1642      C1646   1.538       .  S
C1642      C1644   1.540       .  S
C1642      H1648   1.111       .  S
C1643      H1649   1.086       .  S
C1643      C1644   1.366       .  D
C1644      C1656   1.472       .  S
C1645      H1650   1.087       .  S
C1645      C1646   1.362       .  D
C1646      C1710   1.487       .  S
C1651      C1652   1.541       .  S
C1651      C1657   1.538       .  S
C1651      C1655   1.537       .  S
C1651      C1690   1.524       .  S
C1652      H1659   1.079       .  S
C1652      C1653   1.359       .  D
C1653      C1654   1.536       .  S
C1654      C1658   1.535       .  S
C1654      C1656   1.543       .  S
C1654      H1660   1.111       .  S
C1655      H1661   1.086       .  S
C1655      C1656   1.367       .  D
C1657      H1662   1.087       .  S
C1657      C1658   1.362       .  D
C1658      C1700   1.483       .  S
In1663     O1665   2.233       .  S
In1663     O1666   2.265       .  S
In1663     O2290   2.242       .  S
In1663     O1668   2.229       .  S
In1663     O1670   2.228       .  S
In1663     O1671   2.268       .  S
In1663     O1672   2.245       .  S
In1663     O1675   2.228       .  S
C1664      O1670   1.261       .  A
C1664      O1672   1.264       .  A
C1664      C1693   1.474       .  S
O1665      C1673   1.259       .  A
O1666      C1673   1.264       .  A
C1667      O1674   1.261       .  A
C1667      O2284   1.259   1_545  A
C1667      C1723   1.470       .  S
O1668      C2283   1.259       .  A
C1669      O1671   1.265       .  A
C1669      O1675   1.258       .  A
C1669      C1753   1.478       .  S
C1673      C1733   1.480       .  S
O1674     In2279   2.242   1_545  S
In1676     O1679   2.267       .  S
In1676     O1687   2.248       .  S
In1676     O1681   2.226       .  S
In1676     O1683   2.229       .  S
In1676     O1684   2.273       .  S
In1676     O1685   2.239       .  S
In1676     O1688   2.226       .  S
C1677      O1683   1.262       .  A
C1677      O1685   1.263       .  A
C1677      C1743   1.472       .  S
O1678      C1686   1.259       .  A
C1680      O1687   1.262       .  A
C1680      O1681   1.261       .  A
C1680      C1763   1.473       .  S
C1682      O1684   1.266       .  A
C1682      O1688   1.259       .  A
C1682      C1713   1.481       .  S
C1686      C1703   1.480       .  S
C1689      C1690   1.408       .  A
C1689      C1694   1.397       .  A
C1689      H1695   1.083       .  S
C1690      C1691   1.412       .  A
C1691      C1692   1.394       .  A
C1691      H1696   1.076       .  S
C1692      C1693   1.401       .  A
C1692      H1697   1.083       .  S
C1693      C1694   1.402       .  A
C1694      H1698   1.083       .  S
C1699      C1700   1.402       .  A
C1699      C1704   1.397       .  A
C1699      H1705   1.083       .  S
C1700      C1701   1.403       .  A
C1701      C1702   1.402       .  A
C1701      H1706   1.076       .  S
C1702      C1703   1.404       .  A
C1702      H1707   1.083       .  S
C1703      C1704   1.407       .  A
C1704      H1708   1.083       .  S
C1709      C1710   1.404       .  A
C1709      C1714   1.396       .  A
C1709      H1715   1.083       .  S
C1710      C1711   1.405       .  A
C1711      C1712   1.404       .  A
C1711      H1716   1.079       .  S
C1712      C1713   1.405       .  A
C1712      H1717   1.083       .  S
C1713      C1714   1.405       .  A
C1714      H1718   1.083       .  S
C1719      C1720   1.410       .  A
C1719      C1724   1.394       .  A
C1719      H1725   1.077       .  S
C1720      C1721   1.409       .  A
C1721      C1722   1.395       .  A
C1721      H1726   1.083       .  S
C1722      C1723   1.401       .  A
C1722      H1727   1.083       .  S
C1723      C1724   1.401       .  A
C1724      H1728   1.083       .  S
C1729      C1730   1.403       .  A
C1729      C1734   1.401       .  A
C1729      H1735   1.082       .  S
C1730      C1731   1.400       .  A
C1731      C1732   1.397       .  A
C1731      H1736   1.083       .  S
C1732      C1733   1.407       .  A
C1732      H1737   1.083       .  S
C1733      C1734   1.405       .  A
C1734      H1738   1.083       .  S
C1739      H1745   1.083       .  S
C1740      C1741   1.411       .  A
C1741      C1742   1.396       .  A
C1741      H1746   1.077       .  S
C1742      C1743   1.402       .  A
C1742      H1747   1.083       .  S
C1743      C1744   1.401       .  A
C1749      C1750   1.405       .  A
C1749      C1754   1.403       .  A
C1749      H1755   1.078       .  S
C1750      C1751   1.404       .  A
C1751      C1752   1.395       .  A
C1751      H1756   1.083       .  S
C1752      C1753   1.404       .  A
C1752      H1757   1.083       .  S
C1753      C1754   1.404       .  A
C1754      H1758   1.083       .  S
C1759      C1760   1.410       .  A
C1759      C1764   1.398       .  A
C1759      H1765   1.083       .  S
C1760      C1761   1.411       .  A
C1761      C1762   1.394       .  A
C1761      H1766   1.076       .  S
C1762      C1763   1.401       .  A
C1762      H1767   1.083       .  S
C1763      C1764   1.402       .  A
C1764      H1768   1.083       .  S
C1769      C1770   1.409       .  A
C1769      C1774   1.396       .  A
C1769      H1775   1.083       .  S
C1770      C1771   1.410       .  A
C1771      C1772   1.394       .  A
C1771      H1776   1.076       .  S
C1772      C1773   1.402       .  A
C1772      H1777   1.083       .  S
C1773      C1774   1.401       .  A
C1774      H1778   1.083       .  S
C1779      C1780   1.400       .  A
C1779      C1784   1.400       .  A
C1779      H1785   1.083       .  S
C1780      C1781   1.402       .  A
C1781      C1782   1.399       .  A
C1781      H1786   1.083       .  S
C1782      C1783   1.405       .  A
C1782      H1787   1.083       .  S
C1783      C1784   1.408       .  A
C1784      H1788   1.083       .  S
C1789      C1790   1.402       .  A
C1789      C1794   1.400       .  A
C1789      H1795   1.082       .  S
C1790      C1791   1.400       .  A
C1791      C1792   1.398       .  A
C1791      H1796   1.083       .  S
C1792      C1793   1.407       .  A
C1792      H1797   1.083       .  S
C1793      C1794   1.405       .  A
C1794      H1798   1.083       .  S
C1799      C1800   1.411       .  A
C1799      C1804   1.395       .  A
C1799      H1805   1.076       .  S
C1800      C1801   1.409       .  A
C1801      C1802   1.396       .  A
C1801      H1806   1.083       .  S
C1802      C1803   1.401       .  A
C1802      H1807   1.083       .  S
C1803      C1804   1.401       .  A
C1804      H1808   1.083       .  S
C1809      C1810   1.405       .  A
C1809      C1814   1.394       .  A
C1809      H1815   1.083       .  S
C1810      C1811   1.405       .  A
C1811      C1812   1.406       .  A
C1811      H1816   1.083       .  S
C1812      C1813   1.408       .  A
C1812      H1817   1.079       .  S
C1813      C1814   1.404       .  A
C1819      C1820   1.411       .  A
C1819      C1824   1.396       .  A
C1819      H1825   1.076       .  S
C1820      C1821   1.409       .  A
C1821      C1822   1.397       .  A
C1821      H1826   1.083       .  S
C1822      C1823   1.402       .  A
C1822      H1827   1.083       .  S
C1823      C1824   1.401       .  A
C1824      H1828   1.083       .  S
C1829      C1830   1.405       .  A
C1829      C1834   1.404       .  A
C1829      H1835   1.083       .  S
C1830      C1831   1.406       .  A
C1831      C1832   1.396       .  A
C1831      H1836   1.083       .  S
C1832      C1833   1.404       .  A
C1832      H1837   1.083       .  S
C1833      C1834   1.405       .  A
C1834      H1838   1.077       .  S
C1839      C1840   1.412       .  A
C1839      C1844   1.397       .  A
C1839      H1845   1.076       .  S
C1840      C1841   1.409       .  A
C1841      C1842   1.396       .  A
C1841      H1846   1.083       .  S
C1842      C1843   1.402       .  A
C1842      H1847   1.083       .  S
C1843      C1844   1.402       .  A
C1844      H1848   1.083       .  S
C1849      C1850   1.542       .  S
C1849      C1855   1.537       .  S
C1849      C1853   1.537       .  S
C1849      C2148   1.526       .  S
C1850      H1857   1.076       .  S
C1850      C1851   1.361       .  D
C1851      C1852   1.541       .  S
C1851      C2233   1.477       .  S
C1852      C1856   1.539       .  S
C1852      C1854   1.544       .  S
C1852      H1858   1.111       .  S
C1853      H1859   1.086       .  S
C1853      C1854   1.365       .  D
C1854      C1866   1.475       .  S
C1855      H1860   1.087       .  S
C1855      C1856   1.363       .  D
C1856      C2141   1.489       .  S
C1861      C1862   1.542       .  S
C1861      C1865   1.537       .  S
C1861      C2128   1.527       .  S
C1862      H1869   1.079       .  S
C1863      C2245   1.471       .  S
C1864      C1868   1.538       .  S
C1864      H1870   1.111       .  S
C1865      H1871   1.086       .  S
C1867      H1872   1.087       .  S
C1868      C2121   1.491       .  S
C1873      C1874   1.544       .  S
C1873      C1879   1.538       .  S
C1873      C1877   1.539       .  S
C1873      C2108   1.524       .  S
C1874      H1881   1.073       .  S
C1874      C1875   1.360       .  D
C1875      C1876   1.533       .  S
C1875      C1961   1.471       .  S
C1876      C1880   1.531       .  S
C1876      C1878   1.538       .  S
C1876      H1882   1.111       .  S
C1877      H1883   1.086       .  S
C1877      C1878   1.366       .  D
C1878      C1890   1.472       .  S
C1879      H1884   1.087       .  S
C1879      C1880   1.359       .  D
C1880      C2098   1.473       .  S
C1885      C1886   1.544       .  S
C1885      C1891   1.539       .  S
C1885      C1889   1.536       .  S
C1885      C2078   1.522       .  S
C1886      H1893   1.077       .  S
C1886      C1887   1.360       .  D
C1887      C1888   1.538       .  S
C1887      C1949   1.472       .  S
C1888      C1892   1.531       .  S
C1888      C1890   1.540       .  S
C1888      H1894   1.111       .  S
C1889      H1895   1.086       .  S
C1889      C1890   1.364       .  D
C1891      H1896   1.087       .  S
C1891      C1892   1.360       .  D
C1892      C2088   1.474       .  S
In1897     O1899   2.226       .  S
In1897     O1900   2.275       .  S
In1897     O1908   2.244       .  S
In1897     O1902   2.224       .  S
In1897     O1904   2.225       .  S
In1897     O1905   2.282       .  S
In1897     O1909   2.216       .  S
C1898      O1906   1.263       .  A
C1898      C2111   1.472       .  S
O1899      C1907   1.258       .  A
O1900      C1907   1.267       .  A
C1901      O1908   1.263       .  A
C1901      O1902   1.260       .  A
C1901      C2081   1.471       .  S
C1903      O1905   1.267       .  A
C1903      O1909   1.258       .  A
C1903      C2118   1.482       .  S
C1907      C2138   1.482       .  S
In1910     O1912   2.242       .  S
In1910     O1913   2.235       .  S
In1910     O1921   2.240       .  S
In1910     O1915   2.261       .  S
In1910     O1917   2.258       .  S
In1910     O1918   2.244       .  S
In1910     O1922   2.242       .  S
C1911      O1919   1.259       .  A
C1911      C2091   1.480       .  S
O1912      C1920   1.262       .  A
O1913      C1920   1.262       .  A
C1914      O1921   1.259       .  A
C1914      O1915   1.263       .  A
C1914      C2101   1.480       .  S
C1916      O1918   1.262       .  A
C1916      O1922   1.261       .  A
C1916      C2151   1.476       .  S
C1920      C2131   1.475       .  S
C1923      C1924   1.543       .  S
C1923      C1929   1.535       .  S
C1923      C1927   1.537       .  S
C1923      C2068   1.526       .  S
C1924      H1931   1.075   1_554  S
C1924      C1925   1.360       .  D
C1925      C1926   1.539       .  S
C1925      C2159   1.477   1_554  S
C1926      C1930   1.539       .  S
C1926      C1928   1.541       .  S
C1926      H1932   1.111       .  S
C1927      H1933   1.086       .  S
C1927      C1928   1.366       .  D
C1928      C1940   1.473       .  S
C1929      H1934   1.087       .  S
C1929      C1930   1.363       .  D
C1930      C2058   1.486       .  S
C1935      C1936   1.543       .  S
C1935      C1939   1.537       .  S
C1935      C2048   1.523       .  S
C1936      H1943   1.077   1_554  S
C1937      C2171   1.470   1_554  S
C1938      C1942   1.531       .  S
C1938      H1944   1.111       .  S
C1939      H1945   1.086       .  S
C1941      H1946   1.087       .  S
C1942      C2038   1.474       .  S
C1947      C1948   1.542       .  S
C1947      C1953   1.536       .  S
C1947      C1951   1.537       .  S
C1947      C2028   1.522       .  S
C1948      H1955   1.082       .  S
C1948      C1949   1.361       .  D
C1949      C1950   1.537       .  S
C1950      C1954   1.538       .  S
C1950      C1952   1.540       .  S
C1950      H1956   1.111       .  S
C1951      H1957   1.086       .  S
C1951      C1952   1.366       .  D
C1952      C1964   1.472       .  S
C1953      H1958   1.087       .  S
C1953      C1954   1.362       .  D
C1954      C2018   1.487       .  S
C1959      C1960   1.541       .  S
C1959      C1965   1.538       .  S
C1959      C1963   1.537       .  S
C1959      C1998   1.524       .  S
C1960      H1967   1.079       .  S
C1960      C1961   1.359       .  D
C1961      C1962   1.536       .  S
C1962      C1966   1.535       .  S
C1962      C1964   1.543       .  S
C1962      H1968   1.111       .  S
C1963      H1969   1.086       .  S
C1963      C1964   1.367       .  D
C1965      H1970   1.087       .  S
C1965      C1966   1.362       .  D
C1966      C2008   1.483       .  S
In1971     O1973   2.232       .  S
In1971     O1974   2.265       .  S
In1971     O1976   2.229       .  S
In1971     O1978   2.228       .  S
In1971     O1979   2.268       .  S
In1971     O1980   2.245       .  S
In1971     O1983   2.228       .  S
C1972      O1978   1.261       .  A
C1972      O1980   1.264       .  A
C1972      C2001   1.474       .  S
O1973      C1981   1.259       .  A
O1974      C1981   1.264       .  A
C1975      O1982   1.261       .  A
C1975      C2031   1.470       .  S
C1977      O1979   1.265       .  A
C1977      O1983   1.258       .  A
C1977      C2061   1.478       .  S
C1981      C2041   1.480       .  S
In1984     O1987   2.267       .  S
In1984     O1995   2.247       .  S
In1984     O1989   2.226       .  S
In1984     O1991   2.229       .  S
In1984     O1992   2.273       .  S
In1984     O1993   2.239       .  S
In1984     O1996   2.226       .  S
C1985      O1991   1.262       .  A
C1985      O1993   1.263       .  A
C1985      C2051   1.472       .  S
O1986      C1994   1.259       .  A
C1988      O1995   1.262       .  A
C1988      O1989   1.261       .  A
C1988      C2071   1.473       .  S
C1990      O1992   1.266       .  A
C1990      O1996   1.259       .  A
C1990      C2021   1.481       .  S
C1994      C2011   1.480       .  S
C1997      C1998   1.408       .  A
C1997      C2002   1.397       .  A
C1997      H2003   1.083       .  S
C1998      C1999   1.412       .  A
C1999      C2000   1.394       .  A
C1999      H2004   1.076       .  S
C2000      C2001   1.401       .  A
C2000      H2005   1.083       .  S
C2001      C2002   1.402       .  A
C2002      H2006   1.083       .  S
C2007      C2008   1.402       .  A
C2007      C2012   1.397       .  A
C2007      H2013   1.083       .  S
C2008      C2009   1.403       .  A
C2009      C2010   1.402       .  A
C2009      H2014   1.076       .  S
C2010      C2011   1.404       .  A
C2010      H2015   1.083       .  S
C2011      C2012   1.407       .  A
C2012      H2016   1.083       .  S
C2017      C2018   1.404       .  A
C2017      C2022   1.396       .  A
C2017      H2023   1.083       .  S
C2018      C2019   1.405       .  A
C2019      C2020   1.404       .  A
C2019      H2024   1.079       .  S
C2020      C2021   1.405       .  A
C2020      H2025   1.083       .  S
C2021      C2022   1.405       .  A
C2022      H2026   1.083       .  S
C2027      C2028   1.410       .  A
C2027      C2032   1.394       .  A
C2027      H2033   1.077       .  S
C2028      C2029   1.409       .  A
C2029      C2030   1.395       .  A
C2029      H2034   1.083       .  S
C2030      C2031   1.401       .  A
C2030      H2035   1.083       .  S
C2031      C2032   1.401       .  A
C2032      H2036   1.083       .  S
C2037      C2038   1.403       .  A
C2037      C2042   1.401       .  A
C2037      H2043   1.082       .  S
C2038      C2039   1.400       .  A
C2039      C2040   1.397       .  A
C2039      H2044   1.083       .  S
C2040      C2041   1.407       .  A
C2040      H2045   1.083       .  S
C2041      C2042   1.405       .  A
C2042      H2046   1.083       .  S
C2047      H2053   1.083       .  S
C2048      C2049   1.410       .  A
C2049      C2050   1.395       .  A
C2049      H2054   1.077       .  S
C2050      C2051   1.402       .  A
C2050      H2055   1.083       .  S
C2051      C2052   1.401       .  A
C2057      C2058   1.405       .  A
C2057      C2062   1.403       .  A
C2057      H2063   1.078       .  S
C2058      C2059   1.404       .  A
C2059      C2060   1.395       .  A
C2059      H2064   1.083       .  S
C2060      C2061   1.404       .  A
C2060      H2065   1.083       .  S
C2061      C2062   1.404       .  A
C2062      H2066   1.083       .  S
C2067      C2068   1.410       .  A
C2067      C2072   1.398       .  A
C2067      H2073   1.083       .  S
C2068      C2069   1.411       .  A
C2069      C2070   1.394       .  A
C2069      H2074   1.076       .  S
C2070      C2071   1.401       .  A
C2070      H2075   1.083       .  S
C2071      C2072   1.402       .  A
C2072      H2076   1.083       .  S
C2077      C2078   1.409       .  A
C2077      C2082   1.396       .  A
C2077      H2083   1.083       .  S
C2078      C2079   1.410       .  A
C2079      C2080   1.394       .  A
C2079      H2084   1.076       .  S
C2080      C2081   1.402       .  A
C2080      H2085   1.083       .  S
C2081      C2082   1.401       .  A
C2082      H2086   1.083       .  S
C2087      C2088   1.400       .  A
C2087      C2092   1.400       .  A
C2087      H2093   1.083       .  S
C2088      C2089   1.402       .  A
C2089      C2090   1.399       .  A
C2089      H2094   1.083       .  S
C2090      C2091   1.405       .  A
C2090      H2095   1.083       .  S
C2091      C2092   1.408       .  A
C2092      H2096   1.083       .  S
C2097      C2098   1.402       .  A
C2097      C2102   1.400       .  A
C2097      H2103   1.082       .  S
C2098      C2099   1.400       .  A
C2099      C2100   1.398       .  A
C2099      H2104   1.083       .  S
C2100      C2101   1.407       .  A
C2100      H2105   1.083       .  S
C2101      C2102   1.405       .  A
C2102      H2106   1.083       .  S
C2107      C2108   1.411       .  A
C2107      C2112   1.394       .  A
C2107      H2113   1.076       .  S
C2108      C2109   1.409       .  A
C2109      C2110   1.396       .  A
C2109      H2114   1.083       .  S
C2110      C2111   1.401       .  A
C2110      H2115   1.083       .  S
C2111      C2112   1.401       .  A
C2112      H2116   1.083       .  S
C2117      C2118   1.405       .  A
C2117      C2122   1.394       .  A
C2117      H2123   1.083       .  S
C2118      C2119   1.405       .  A
C2119      C2120   1.406       .  A
C2119      H2124   1.083       .  S
C2120      C2121   1.408       .  A
C2120      H2125   1.079       .  S
C2121      C2122   1.404       .  A
C2127      C2128   1.411       .  A
C2127      C2132   1.396       .  A
C2127      H2133   1.076       .  S
C2128      C2129   1.409       .  A
C2129      C2130   1.398       .  A
C2129      H2134   1.083       .  S
C2130      C2131   1.402       .  A
C2130      H2135   1.083       .  S
C2131      C2132   1.401       .  A
C2132      H2136   1.083       .  S
C2137      C2138   1.405       .  A
C2137      C2142   1.404       .  A
C2137      H2143   1.083       .  S
C2138      C2139   1.406       .  A
C2139      C2140   1.396       .  A
C2139      H2144   1.083       .  S
C2140      C2141   1.404       .  A
C2140      H2145   1.083       .  S
C2141      C2142   1.405       .  A
C2142      H2146   1.077       .  S
C2147      C2148   1.412       .  A
C2147      C2152   1.397       .  A
C2147      H2153   1.076       .  S
C2148      C2149   1.409       .  A
C2149      C2150   1.396       .  A
C2149      H2154   1.083       .  S
C2150      C2151   1.402       .  A
C2150      H2155   1.083       .  S
C2151      C2152   1.402       .  A
C2152      H2156   1.083       .  S
C2157      C2158   1.542       .  S
C2157      C2163   1.537       .  S
C2157      C2161   1.537       .  S
C2157      C2456   1.526       .  S
C2158      H2165   1.076       .  S
C2158      C2159   1.361       .  D
C2159      C2160   1.541       .  S
C2160      C2164   1.539       .  S
C2160      C2162   1.544       .  S
C2160      H2166   1.111       .  S
C2161      H2167   1.086       .  S
C2161      C2162   1.365       .  D
C2162      C2174   1.475       .  S
C2163      H2168   1.087       .  S
C2163      C2164   1.363       .  D
C2164      C2449   1.489       .  S
C2169      C2170   1.542       .  S
C2169      C2173   1.537       .  S
C2169      C2436   1.526       .  S
C2170      H2177   1.079       .  S
C2172      C2176   1.538       .  S
C2172      H2178   1.111       .  S
C2173      H2179   1.086       .  S
C2175      H2180   1.087       .  S
C2176      C2429   1.491       .  S
C2181      C2182   1.544       .  S
C2181      C2187   1.538       .  S
C2181      C2185   1.539       .  S
C2181      C2416   1.524       .  S
C2182      H2189   1.073       .  S
C2182      C2183   1.360       .  D
C2183      C2184   1.533       .  S
C2183      C2269   1.471       .  S
C2184      C2188   1.531       .  S
C2184      C2186   1.538       .  S
C2184      H2190   1.111       .  S
C2185      H2191   1.086       .  S
C2185      C2186   1.366       .  D
C2186      C2198   1.472       .  S
C2187      H2192   1.087       .  S
C2187      C2188   1.359       .  D
C2188      C2406   1.473       .  S
C2193      C2194   1.544       .  S
C2193      C2199   1.539       .  S
C2193      C2197   1.536       .  S
C2193      C2386   1.522       .  S
C2194      H2201   1.077       .  S
C2194      C2195   1.360       .  D
C2195      C2196   1.538       .  S
C2195      C2257   1.472       .  S
C2196      C2200   1.531       .  S
C2196      C2198   1.540       .  S
C2196      H2202   1.111       .  S
C2197      H2203   1.086       .  S
C2197      C2198   1.364       .  D
C2199      H2204   1.087       .  S
C2199      C2200   1.360       .  D
C2200      C2396   1.474       .  S
In2205     O2207   2.226       .  S
In2205     O2208   2.275       .  S
In2205     O2216   2.243       .  S
In2205     O2210   2.224       .  S
In2205     O2212   2.224       .  S
In2205     O2213   2.282       .  S
In2205     O2217   2.216       .  S
C2206      O2214   1.263       .  A
C2206      C2419   1.472       .  S
O2207      C2215   1.258       .  A
O2208      C2215   1.267       .  A
C2209      O2216   1.263       .  A
C2209      O2210   1.260       .  A
C2209      C2389   1.471       .  S
C2211      O2213   1.267       .  A
C2211      O2217   1.258       .  A
C2211      C2426   1.482       .  S
C2215      C2446   1.482       .  S
In2218     O2220   2.242       .  S
In2218     O2221   2.235       .  S
In2218     O2229   2.240       .  S
In2218     O2223   2.261       .  S
In2218     O2225   2.258       .  S
In2218     O2226   2.244       .  S
In2218     O2230   2.242       .  S
C2219      O2227   1.259       .  A
C2219      C2399   1.480       .  S
O2220      C2228   1.262       .  A
O2221      C2228   1.262       .  A
C2222      O2229   1.259       .  A
C2222      O2223   1.263       .  A
C2222      C2409   1.480       .  S
C2224      O2226   1.262       .  A
C2224      O2230   1.261       .  A
C2224      C2459   1.476       .  S
C2228      C2439   1.475       .  S
C2231      C2232   1.543       .  S
C2231      C2237   1.535       .  S
C2231      C2235   1.537       .  S
C2231      C2376   1.526       .  S
C2232      H2239   1.075       .  S
C2232      C2233   1.360       .  D
C2233      C2234   1.539       .  S
C2234      C2238   1.539       .  S
C2234      C2236   1.541       .  S
C2234      H2240   1.111       .  S
C2235      H2241   1.086       .  S
C2235      C2236   1.366       .  D
C2236      C2248   1.473       .  S
C2237      H2242   1.087       .  S
C2237      C2238   1.363       .  D
C2238      C2366   1.487       .  S
C2243      C2244   1.543       .  S
C2243      C2247   1.537       .  S
C2243      C2356   1.523       .  S
C2244      H2251   1.077       .  S
C2246      C2250   1.532       .  S
C2246      H2252   1.111       .  S
C2247      H2253   1.086       .  S
C2249      H2254   1.087       .  S
C2250      C2346   1.474       .  S
C2255      C2256   1.542       .  S
C2255      C2261   1.536       .  S
C2255      C2259   1.537       .  S
C2255      C2336   1.521       .  S
C2256      H2263   1.082       .  S
C2256      C2257   1.361       .  D
C2257      C2258   1.537       .  S
C2258      C2262   1.538       .  S
C2258      C2260   1.540       .  S
C2258      H2264   1.111       .  S
C2259      H2265   1.086       .  S
C2259      C2260   1.366       .  D
C2260      C2272   1.472       .  S
C2261      H2266   1.087       .  S
C2261      C2262   1.362       .  D
C2262      C2326   1.487       .  S
C2267      C2268   1.541       .  S
C2267      C2273   1.538       .  S
C2267      C2271   1.537       .  S
C2267      C2306   1.524       .  S
C2268      H2275   1.079       .  S
C2268      C2269   1.359       .  D
C2269      C2270   1.536       .  S
C2270      C2274   1.535       .  S
C2270      C2272   1.543       .  S
C2270      H2276   1.111       .  S
C2271      H2277   1.086       .  S
C2271      C2272   1.367       .  D
C2273      H2278   1.087       .  S
C2273      C2274   1.362       .  D
C2274      C2316   1.483       .  S
In2279     O2281   2.233       .  S
In2279     O2282   2.265       .  S
In2279     O2284   2.229       .  S
In2279     O2286   2.228       .  S
In2279     O2287   2.268       .  S
In2279     O2288   2.245       .  S
In2279     O2291   2.228       .  S
C2280      O2286   1.261       .  A
C2280      O2288   1.264       .  A
C2280      C2309   1.474       .  S
O2281      C2289   1.259       .  A
O2282      C2289   1.264       .  A
C2283      O2290   1.261       .  A
C2283      C2339   1.470       .  S
C2285      O2287   1.265       .  A
C2285      O2291   1.258       .  A
C2285      C2369   1.478       .  S
C2289      C2349   1.480       .  S
In2292     O2295   2.267       .  S
In2292     O2303   2.248       .  S
In2292     O2297   2.226       .  S
In2292     O2299   2.229       .  S
In2292     O2300   2.273       .  S
In2292     O2301   2.239       .  S
In2292     O2304   2.226       .  S
C2293      O2299   1.262       .  A
C2293      O2301   1.263       .  A
C2293      C2359   1.472       .  S
O2294      C2302   1.259       .  A
C2296      O2303   1.262       .  A
C2296      O2297   1.261       .  A
C2296      C2379   1.473       .  S
C2298      O2300   1.266       .  A
C2298      O2304   1.259       .  A
C2298      C2329   1.481       .  S
C2302      C2319   1.480       .  S
C2305      C2306   1.408       .  A
C2305      C2310   1.397       .  A
C2305      H2311   1.083       .  S
C2306      C2307   1.412       .  A
C2307      C2308   1.394       .  A
C2307      H2312   1.076       .  S
C2308      C2309   1.401       .  A
C2308      H2313   1.083       .  S
C2309      C2310   1.402       .  A
C2310      H2314   1.083       .  S
C2315      C2316   1.402       .  A
C2315      C2320   1.397       .  A
C2315      H2321   1.083       .  S
C2316      C2317   1.403       .  A
C2317      C2318   1.401       .  A
C2317      H2322   1.076       .  S
C2318      C2319   1.404       .  A
C2318      H2323   1.083       .  S
C2319      C2320   1.407       .  A
C2320      H2324   1.083       .  S
C2325      C2326   1.404       .  A
C2325      C2330   1.396       .  A
C2325      H2331   1.083       .  S
C2326      C2327   1.405       .  A
C2327      C2328   1.404       .  A
C2327      H2332   1.079       .  S
C2328      C2329   1.405       .  A
C2328      H2333   1.083       .  S
C2329      C2330   1.405       .  A
C2330      H2334   1.083       .  S
C2335      C2336   1.410       .  A
C2335      C2340   1.394       .  A
C2335      H2341   1.077       .  S
C2336      C2337   1.409       .  A
C2337      C2338   1.395       .  A
C2337      H2342   1.083       .  S
C2338      C2339   1.401       .  A
C2338      H2343   1.083       .  S
C2339      C2340   1.401       .  A
C2340      H2344   1.083       .  S
C2345      C2346   1.403       .  A
C2345      C2350   1.401       .  A
C2345      H2351   1.082       .  S
C2346      C2347   1.400       .  A
C2347      C2348   1.397       .  A
C2347      H2352   1.083       .  S
C2348      C2349   1.407       .  A
C2348      H2353   1.083       .  S
C2349      C2350   1.405       .  A
C2350      H2354   1.083       .  S
C2355      H2361   1.083       .  S
C2356      C2357   1.411       .  A
C2357      C2358   1.396       .  A
C2357      H2362   1.077       .  S
C2358      C2359   1.402       .  A
C2358      H2363   1.083       .  S
C2359      C2360   1.401       .  A
C2365      C2366   1.405       .  A
C2365      C2370   1.403       .  A
C2365      H2371   1.078       .  S
C2366      C2367   1.404       .  A
C2367      C2368   1.395       .  A
C2367      H2372   1.083       .  S
C2368      C2369   1.404       .  A
C2368      H2373   1.083       .  S
C2369      C2370   1.404       .  A
C2370      H2374   1.083       .  S
C2375      C2376   1.410       .  A
C2375      C2380   1.398       .  A
C2375      H2381   1.083       .  S
C2376      C2377   1.411       .  A
C2377      C2378   1.394       .  A
C2377      H2382   1.076       .  S
C2378      C2379   1.401       .  A
C2378      H2383   1.083       .  S
C2379      C2380   1.402       .  A
C2380      H2384   1.083       .  S
C2385      C2386   1.409       .  A
C2385      C2390   1.396       .  A
C2385      H2391   1.083       .  S
C2386      C2387   1.410       .  A
C2387      C2388   1.394       .  A
C2387      H2392   1.076       .  S
C2388      C2389   1.402       .  A
C2388      H2393   1.083       .  S
C2389      C2390   1.401       .  A
C2390      H2394   1.083       .  S
C2395      C2396   1.400       .  A
C2395      C2400   1.400       .  A
C2395      H2401   1.083       .  S
C2396      C2397   1.402       .  A
C2397      C2398   1.399       .  A
C2397      H2402   1.083       .  S
C2398      C2399   1.405       .  A
C2398      H2403   1.083       .  S
C2399      C2400   1.408       .  A
C2400      H2404   1.083       .  S
C2405      C2406   1.402       .  A
C2405      C2410   1.400       .  A
C2405      H2411   1.082       .  S
C2406      C2407   1.400       .  A
C2407      C2408   1.398       .  A
C2407      H2412   1.083       .  S
C2408      C2409   1.407       .  A
C2408      H2413   1.083       .  S
C2409      C2410   1.405       .  A
C2410      H2414   1.083       .  S
C2415      C2416   1.411       .  A
C2415      C2420   1.395       .  A
C2415      H2421   1.076       .  S
C2416      C2417   1.409       .  A
C2417      C2418   1.396       .  A
C2417      H2422   1.083       .  S
C2418      C2419   1.401       .  A
C2418      H2423   1.083       .  S
C2419      C2420   1.401       .  A
C2420      H2424   1.083       .  S
C2425      C2426   1.405       .  A
C2425      C2430   1.394       .  A
C2425      H2431   1.083       .  S
C2426      C2427   1.405       .  A
C2427      C2428   1.406       .  A
C2427      H2432   1.083       .  S
C2428      C2429   1.408       .  A
C2428      H2433   1.079       .  S
C2429      C2430   1.404       .  A
C2435      C2436   1.411       .  A
C2435      C2440   1.396       .  A
C2435      H2441   1.076       .  S
C2436      C2437   1.409       .  A
C2437      C2438   1.398       .  A
C2437      H2442   1.083       .  S
C2438      C2439   1.402       .  A
C2438      H2443   1.083       .  S
C2439      C2440   1.401       .  A
C2440      H2444   1.083       .  S
C2445      C2446   1.405       .  A
C2445      C2450   1.404       .  A
C2445      H2451   1.083       .  S
C2446      C2447   1.406       .  A
C2447      C2448   1.396       .  A
C2447      H2452   1.083       .  S
C2448      C2449   1.404       .  A
C2448      H2453   1.083       .  S
C2449      C2450   1.405       .  A
C2450      H2454   1.077       .  S
C2455      C2456   1.412       .  A
C2455      C2460   1.397       .  A
C2455      H2461   1.076       .  S
C2456      C2457   1.409       .  A
C2457      C2458   1.396       .  A
C2457      H2462   1.083       .  S
C2458      C2459   1.402       .  A
C2458      H2463   1.083       .  S
C2459      C2460   1.402       .  A
C2460      H2464   1.083       .  S
