geometry optimzed in LAMMPS
_audit_creation_date              2020-11-30 
_audit_creation_method            'lammps2cif' 
_symmetry_space_group_name_H-M    'P1' 
_symmetry_Int_Tables_number       1 
_symmetry_cell_setting            triclinic 
loop_ 
_symmetry_equiv_pos_as_xyz 
  x,y,z 
_cell_length_a                    44.75017286 
_cell_length_b                    44.55938240974462 
_cell_length_c                    56.79989328899295 
_cell_angle_alpha                 89.97726509970958 
_cell_angle_beta                  89.9818452531365 
_cell_angle_gamma                 90.04870544946623 
loop_ 
_atom_site_label 
_atom_site_type_symbol 
_atom_site_fract_x 
_atom_site_fract_y 
_atom_site_fract_z 
_atom_site_charge 
O1          O  0.35567956  0.40389751  0.77919428    -0.72900
O2          O  0.34267118  0.34192721  0.72920105    -0.73900
O3          O  0.35503535  0.34011415  0.77837731    -0.62500
O4          O  0.34345875  0.40557104  0.73007481    -0.70900
O5          O  0.39206876  0.40509636  0.72284697    -0.70500
O6          O  0.40362684  0.34032921  0.77104427    -0.61700
O7          O  0.39137889  0.34176967  0.72214322    -0.74200
O8          O  0.40425101  0.40366212  0.77164604    -0.73000
Cu9        Cu  0.34747428  0.37288050  0.75449330     1.04600
Cu10       Cu  0.39945734  0.37268314  0.74666113     1.04300
C11         C  0.38205008  0.41356558  0.78338133     0.93300
C12         C  0.36514762  0.33202512  0.71772645     0.92400
C13         C  0.38130459  0.33007222  0.78253677     0.84600
C14         C  0.36601503  0.41555579  0.71865667     0.90800
O15         O  0.14024440  0.33999916  0.77834191    -0.72900
O16         O  0.15687839  0.40214756  0.72895289    -0.73900
O17         O  0.14159797  0.40375434  0.77730927    -0.62500
O18         O  0.15560004  0.33847360  0.72989652    -0.70900
O19         O  0.10745191  0.33968408  0.72098325    -0.70500
O20         O  0.09341553  0.40424126  0.76862743    -0.61700
O21         O  0.10860594  0.40325237  0.72042252    -0.74200
O22         O  0.09217419  0.34078945  0.76919446    -0.73000
Cu23       Cu  0.15027752  0.37104616  0.75397054     1.04600
Cu24       Cu  0.09878762  0.37198845  0.74445921     1.04300
C25         C  0.11357303  0.33056361  0.78165122     0.93300
C26         C  0.13519132  0.41277309  0.71697072     0.92400
C27         C  0.11539226  0.41448227  0.78047591     0.84600
C28         C  0.13347896  0.32863457  0.71795139     0.90800
O29         O  0.46921242  0.21787243  0.52200252    -0.72900
O30         O  0.03444041  0.23348422  0.47442822    -0.73900
O31         O  0.03048424  0.21933182  0.52318986    -0.62500
O32         O  0.46972644  0.23079947  0.47323206    -0.70900
O33         O  0.47002710  0.27953815  0.48117498    -0.70500
O34         O  0.03097130  0.26825809  0.53038330    -0.61700
O35         O  0.03202138  0.28228468  0.48153992    -0.74200
O36         O  0.47023960  0.26664968  0.53021756    -0.73000
Cu37       Cu  0.50120813  0.22251462  0.49758876     1.04600
Cu38       Cu  0.50166315  0.27467185  0.50598448     1.04300
C39         C  0.45989179  0.24035520  0.53380839     0.93300
C40         C  0.04360036  0.26023580  0.47043566     0.92400
C41         C  0.04051552  0.24178116  0.53471605     0.84600
C42         C  0.46004058  0.25731141  0.46932338     0.90800
C43         C  0.34882794  0.24766107  0.64181084     0.03200
C44         C  0.32798207  0.22419439  0.64210362    -0.13000
C45         C  0.32711580  0.20339770  0.62359951     0.00700
C46         C  0.34787465  0.20552264  0.60515948    -0.11500
C47         C  0.36901656  0.22881168  0.60485662     0.03100
C48         C  0.36905704  0.24994840  0.62309814    -0.10900
H49         H  0.31288048  0.22161679  0.65687559     0.08700
H50         H  0.34775460  0.18882528  0.59129671     0.06300
H51         H  0.38523971  0.26807660  0.62295260     0.06100
C52         C  0.12886991  0.22298079  0.60741304     0.03200
C53         C  0.15089529  0.20064747  0.60623598    -0.13000
C54         C  0.17239470  0.19824405  0.62414496     0.00700
C55         C  0.17157283  0.21805605  0.64335992    -0.11500
C56         C  0.14996358  0.24076063  0.64438481     0.03100
C57         C  0.12877362  0.24309165  0.62631026    -0.10900
H58         H  0.15146394  0.18539600  0.59138442     0.08700
H59         H  0.18749150  0.21541268  0.65756523     0.06300
H60         H  0.11190313  0.26052575  0.62704900     0.06100
O61         O  0.47204027  0.48411402  0.52744323    -0.72900
O62         O  0.03416101  0.47083091  0.47878693    -0.73900
O63         O  0.03394538  0.48388062  0.52755710    -0.62500
O64         O  0.47074316  0.47089956  0.47854033    -0.70900
O65         O  0.46918081  0.01868366  0.47141016    -0.70500
O66         O  0.03343811  0.02660637  0.52137590    -0.61700
O67         O  0.03347602  0.01431726  0.47230064    -0.74200
O68         O  0.46979189  0.03164284  0.52060517    -0.73000
Cu69       Cu  0.50299314  0.47518686  0.50270172     1.04600
Cu70       Cu  0.50118665  0.02696461  0.49558885     1.04300
C71         C  0.45999284  0.00925044  0.53236694     0.93300
C72         C  0.04424280  0.49323934  0.46718964     0.92400
C73         C  0.04322761  0.00387659  0.53268025     0.84600
C74         C  0.46078613  0.49343184  0.46709173     0.90800
C75         C  0.13433580  0.01645012  0.60448242     0.03200
C76         C  0.15617224  0.03913594  0.60435744    -0.13000
C77         C  0.17661593  0.04168922  0.62307912     0.00700
C78         C  0.17478850  0.02163216  0.64212866    -0.11500
C79         C  0.15267043  0.99928461  0.64255974     0.03100
C80         C  0.12937483  0.50037416  0.62486329    -0.10900
H81         H  0.15740920  0.05463503  0.58968099     0.08700
H82         H  0.19046713  0.02351595  0.65659282     0.06300
H83         H  0.11164945  0.48378532  0.62494550     0.06100
C84         C  0.37579093  0.02397079  0.60882031     0.03200
C85         C  0.35333668  0.04589397  0.60833420    -0.13000
C86         C  0.33244906  0.04774662  0.62672889     0.00700
C87         C  0.33458150  0.02812266  0.64595444    -0.11500
C88         C  0.35742753  0.00665933  0.64688762     0.03100
C89         C  0.37644988  0.50322171  0.62546543    -0.10900
H90         H  0.35158184  0.06092454  0.59339052     0.08700
H91         H  0.31852044  0.02965945  0.66019293     0.06300
H92         H  0.39372711  0.48620365  0.62549928     0.06100
O93         O  0.21378680  0.26636187  0.97282345    -0.72900
O94         O  0.27706195  0.27728588  0.02192047    -0.73900
O95         O  0.27723666  0.26560609  0.97302769    -0.62500
O96         O  0.21370933  0.27803559  0.02157948    -0.70900
O97         O  0.21270902  0.22924180  0.02891447    -0.70500
O98         O  0.27658811  0.21669131  0.97990646    -0.61700
O99         O  0.27656782  0.22848210  0.02904252    -0.74200
O100        O  0.21304110  0.21746739  0.97989544    -0.73000
Cu101      Cu  0.24546663  0.27346426  0.99708983     1.04600
Cu102      Cu  0.24470251  0.22123575  0.00470479     1.04300
C103        C  0.20325604  0.24024342  0.96862741     0.93300
C104        C  0.28712905  0.25460790  0.03316880     0.92400
C105        C  0.28713086  0.23927010  0.96875280     0.84600
C106        C  0.20300244  0.25575165  0.03292464     0.90800
C107        C  0.39572418  0.24374916  0.85822262     0.03200
C108        C  0.41811864  0.22170920  0.85875807    -0.13000
C109        C  0.42059803  0.20216955  0.87807339     0.00700
C110        C  0.40076986  0.20505587  0.89714177    -0.11500
C111        C  0.37874628  0.22754559  0.89706826     0.03100
C112        C  0.37643059  0.24668289  0.87754129    -0.10900
H113        H  0.43319931  0.21927609  0.84394792     0.08700
H114        H  0.40261066  0.18992266  0.91201081     0.06300
H115        H  0.35920945  0.26375398  0.87722406     0.06100
C116        C  0.09678003  0.24575689  0.85740931     0.03200
C117        C  0.07458826  0.22357911  0.85754500    -0.13000
C118        C  0.07201713  0.20393395  0.87670432     0.00700
C119        C  0.09126964  0.20692332  0.89604083    -0.11500
C120        C  0.11308409  0.22955211  0.89628118     0.03100
C121        C  0.11577067  0.24877576  0.87686557    -0.10900
H122        H  0.05991540  0.22100731  0.84249648     0.08700
H123        H  0.08931734  0.19159058  0.91078161     0.06300
H124        H  0.13302298  0.26586420  0.87671059     0.06100
O125        O  0.40476432  0.16038699  0.22790042    -0.72900
O126        O  0.39469807  0.09627194  0.27696452    -0.73900
O127        O  0.40553109  0.09691857  0.22769151    -0.62500
O128        O  0.39394886  0.16020018  0.27717399    -0.70900
O129        O  0.34511403  0.15912041  0.27080293    -0.70500
O130        O  0.35662115  0.09582972  0.22148548    -0.61700
O131        O  0.34583838  0.09564701  0.27072031    -0.74200
O132        O  0.35592479  0.15960125  0.22159398    -0.73000
Cu133      Cu  0.40143505  0.12846014  0.25268829     1.04600
Cu134      Cu  0.34919184  0.12754269  0.24590658     1.04300
C135        C  0.38180494  0.17021518  0.21699164     0.93300
C136        C  0.36879584  0.08567881  0.28155299     0.92400
C137        C  0.38292178  0.08651648  0.21664364     0.84600
C138        C  0.36762409  0.16955008  0.28192756     0.90800
O139        O  0.27833799  0.01732378  0.02856059    -0.72900
O140        O  0.21698053  0.03086709  0.97851212    -0.73900
O141        O  0.21493419  0.01756245  0.02738285    -0.62500
O142        O  0.28009029  0.03036762  0.97997100    -0.70900
O143        O  0.27958493  0.48176523  0.97042591    -0.70500
O144        O  0.21608079  0.46869095  0.01922142    -0.61700
O145        O  0.21606817  0.48064198  0.97007120    -0.74200
O146        O  0.27943971  0.46980017  0.01928552    -0.73000
Cu147      Cu  0.24756341  0.02569359  0.00390412     1.04600
Cu148      Cu  0.24778368  0.47350590  0.99446870     1.04300
C149        C  0.28906065  0.49258745  0.03062678     0.93300
C150        C  0.20686923  0.00844636  0.96701323     0.92400
C151        C  0.20552773  0.49118497  0.03038915     0.84600
C152        C  0.29037367  0.00807347  0.96844526     0.90800
C153        C  0.10362969  0.00608204  0.85482478     0.03200
C154        C  0.12132777  0.50282004  0.87271147    -0.13000
C155        C  0.12099319  0.02500688  0.89261566     0.00700
C156        C  0.09850490  0.04685194  0.89232847    -0.11500
C157        C  0.07835697  0.04825129  0.87342683     0.03100
C158        C  0.08101698  0.02789524  0.85470678    -0.10900
H159        H  0.13770591  0.48496518  0.87361314     0.08700
H160        H  0.09634274  0.06238067  0.90691057     0.06300
H161        H  0.06559195  0.02919705  0.84003440     0.06100
C162        C  0.37998029  0.01993813  0.89555978     0.03200
C163        C  0.40133401  0.04296867  0.89489505    -0.13000
C164        C  0.42092895  0.04552546  0.87570545     0.00700
C165        C  0.41877021  0.02518312  0.85690026    -0.11500
C166        C  0.39703471  0.00243733  0.85715593     0.03100
C167        C  0.37793280  0.49941789  0.87639528    -0.10900
H168        H  0.40299014  0.05866541  0.90941108     0.08700
H169        H  0.43373724  0.02735376  0.84199069     0.06300
H170        H  0.36041751  0.48259543  0.87663882     0.06100
O171        O  0.15569024  0.09491521  0.27056758    -0.72900
O172        O  0.14159737  0.16077153  0.22369817    -0.73900
O173        O  0.15631449  0.15874065  0.27226225    -0.62500
O174        O  0.14114334  0.09699755  0.22203919    -0.70900
O175        O  0.09277079  0.09732375  0.23033105    -0.70500
O176        O  0.10806084  0.15804996  0.28145586    -0.61700
O177        O  0.09344372  0.16099228  0.23274887    -0.74200
O178        O  0.10732790  0.09453676  0.27886587    -0.73000
Cu179      Cu  0.15036497  0.12788970  0.24682404     1.04600
Cu180      Cu  0.09873339  0.12776646  0.25616955     1.04300
C181        C  0.13362359  0.08415943  0.28209861     0.93300
C182        C  0.11527235  0.17121451  0.22067141     0.92400
C183        C  0.13452715  0.16790999  0.28486140     0.84600
C184        C  0.11466830  0.08733600  0.21818990     0.90800
C185        C  0.10029548  0.49903775  0.14326696     0.03200
C186        C  0.07772628  0.47716091  0.14296481    -0.13000
C187        C  0.07598153  0.45652727  0.12432558     0.00700
C188        C  0.09642508  0.45835350  0.10564506    -0.11500
C189        C  0.11849382  0.48072029  0.10543678     0.03100
C190        C  0.11972872  0.99991764  0.12555172    -0.10900
H191        H  0.06205909  0.47565400  0.15747330     0.08700
H192        H  0.09489819  0.44257280  0.09117603     0.06300
H193        H  0.13735857  0.01660204  0.12572589     0.06100
C194        C  0.39710951  0.49909441  0.14191000     0.03200
C195        C  0.41972633  0.47732122  0.14106986    -0.13000
C196        C  0.42156286  0.45748086  0.12189816     0.00700
C197        C  0.40141744  0.46031935  0.10311359    -0.11500
C198        C  0.37907103  0.48242350  0.10355604     0.03100
C199        C  0.37546539  0.99989766  0.12420791    -0.10900
H200        H  0.43536194  0.47528679  0.15554954     0.08700
H201        H  0.40323316  0.44530599  0.08817513     0.06300
H202        H  0.35848915  0.01724721  0.12413889     0.06100
C203        C  0.37721861  0.27462975  0.10497664     0.03200
C204        C  0.37604385  0.25525874  0.12439925    -0.13000
C205        C  0.39637612  0.25807041  0.14296514     0.00700
C206        C  0.41802471  0.28081498  0.14228802    -0.11500
C207        C  0.41956693  0.30047052  0.12298028     0.03100
C208        C  0.39910431  0.29730961  0.10433155    -0.10900
H209        H  0.35916775  0.23779981  0.12510031     0.08700
H210        H  0.43350280  0.28342612  0.15681243     0.06300
H211        H  0.40055053  0.31217129  0.08927198     0.06100
C212        C  0.11520147  0.27243517  0.10658135     0.03200
C213        C  0.11826242  0.25400933  0.12644443    -0.13000
C214        C  0.10034133  0.25843474  0.14638616     0.00700
C215        C  0.07889994  0.28133602  0.14632657    -0.11500
C216        C  0.07588833  0.30014918  0.12668407     0.03100
C217        C  0.09412949  0.29575937  0.10689153    -0.10900
H218        H  0.13483708  0.23628618  0.12648449     0.08700
H219        H  0.06473253  0.28469668  0.16158078     0.06300
H220        H  0.09164204  0.31024658  0.09168601     0.06100
C221        C  0.15206535  0.49905244  0.35622494     0.03200
C222        C  0.12649955  0.99394406  0.37237847    -0.13000
C223        C  0.13525568  0.48169209  0.39490095     0.00700
C224        C  0.15660329  0.45864311  0.39414659    -0.11500
C225        C  0.17595888  0.45587356  0.37480125     0.03100
C226        C  0.17383905  0.47632294  0.35598207    -0.10900
H227        H  0.10833243  0.00995704  0.37180155     0.08700
H228        H  0.15840984  0.44300807  0.40869762     0.06300
H229        H  0.18866999  0.47409715  0.34100012     0.06100
C230        C  0.35403801  0.49702419  0.35614156     0.03200
C231        C  0.33257846  0.47417215  0.35620103    -0.13000
C232        C  0.33099053  0.45403370  0.37514304     0.00700
C233        C  0.35075301  0.45710275  0.39416835    -0.11500
C234        C  0.37200866  0.48024781  0.39427740     0.03100
C235        C  0.37396830  0.99859510  0.37370490    -0.10900
H236        H  0.31723754  0.47196848  0.34153610     0.08700
H237        H  0.34936648  0.44172859  0.40892245     0.06300
H238        H  0.39155712  0.01532700  0.37329391     0.06100
C239        C  0.37249512  0.27294852  0.39558710     0.03200
C240        C  0.35049024  0.29539631  0.39548017    -0.13000
C241        C  0.33039683  0.29769503  0.37651789     0.00700
C242        C  0.33293834  0.27783495  0.35744138    -0.11500
C243        C  0.35546475  0.25596844  0.35715898     0.03100
C244        C  0.37478234  0.25330639  0.37642920    -0.10900
H245        H  0.34875457  0.31078165  0.41018825     0.08700
H246        H  0.31769666  0.27971198  0.34268724     0.06300
H247        H  0.39169357  0.23589635  0.37652460     0.06100
C248        C  0.13209328  0.27487818  0.39654253     0.03200
C249        C  0.13004547  0.25443691  0.37779700    -0.13000
C250        C  0.14999813  0.25570750  0.35875858     0.00700
C251        C  0.17222739  0.27799226  0.35851469    -0.11500
C252        C  0.17414898  0.29910635  0.37682017     0.03100
C253        C  0.15392163  0.29755365  0.39575516    -0.10900
H254        H  0.11260980  0.23753774  0.37794513     0.08700
H255        H  0.18816281  0.27889654  0.34416341     0.06300
H256        H  0.15564515  0.31354565  0.41006032     0.06100
N257        N  0.49850707  0.42411163  0.12378728    -0.36600
N258        N  0.45189301  0.37861897  0.12115646    -0.57100
N259        N  0.49760560  0.33192557  0.12447180    -0.36600
N260        N  0.04451412  0.37825092  0.12502439    -0.57100
C261        C  0.47459883  0.44144599  0.11860745     0.27000
C262        C  0.02282332  0.44104542  0.12037966     0.27000
C263        C  0.47315521  0.31508019  0.11968973     0.27000
C264        C  0.02269450  0.31493701  0.12352635     0.27000
C265        C  0.43460778  0.40319107  0.12435608     0.35600
C266        C  0.43399317  0.35452762  0.12460383     0.35600
C267        C  0.06203018  0.40266099  0.12814969     0.35600
C268        C  0.06199837  0.35407224  0.12903447     0.35600
C269        C  0.48421982  0.46951657  0.11124975    -0.21900
C270        C  0.01386879  0.46891505  0.11212403    -0.21900
C271        C  0.48207142  0.28651297  0.11301235    -0.21900
C272        C  0.01380765  0.28633538  0.11689296    -0.21900
C273        C  0.40553963  0.39465558  0.12951855    -0.22900
C274        C  0.40514724  0.36385453  0.12967036    -0.22900
C275        C  0.09082960  0.39392904  0.13396551    -0.22900
C276        C  0.09082284  0.36312849  0.13446729    -0.22900
C277        C  0.44433916  0.43323995  0.12169721    -0.18300
C278        C  0.05283653  0.43265245  0.12449770    -0.18300
C279        C  0.05276319  0.32390878  0.12658492    -0.18300
C280        C  0.44298430  0.32420434  0.12236047    -0.18300
H281        H  0.47053246  0.48843768  0.10611971     0.14600
H282        H  0.02799739  0.48755842  0.10705535     0.14600
H283        H  0.46788638  0.26777313  0.10828618     0.14600
H284        H  0.02796558  0.26743608  0.11258295     0.14600
H285        H  0.38656382  0.40909389  0.13283884     0.12900
H286        H  0.38580800  0.34993843  0.13314781     0.12900
H287        H  0.10992290  0.40823047  0.13731105     0.12900
H288        H  0.10989050  0.34901233  0.13828335     0.12900
H289        H  0.49790850  0.40350203  0.13228797     0.26200
H290        H  0.49752765  0.35291651  0.13236013     0.26200
N291        N  0.25326510  0.42263529  0.37374572    -0.36600
N292        N  0.20673533  0.37713466  0.37584695    -0.57100
N293        N  0.25256377  0.33028364  0.37474927    -0.36600
N294        N  0.29910301  0.37598760  0.37635529    -0.57100
C295        C  0.22911228  0.44013822  0.37784470     0.27000
C296        C  0.27775635  0.43942742  0.37836286     0.27000
C297        C  0.22796264  0.31345572  0.37915692     0.27000
C298        C  0.27679560  0.31291370  0.37911280     0.27000
C299        C  0.18937631  0.40156880  0.37219724     0.35600
C300        C  0.18887798  0.35288052  0.37305470     0.35600
C301        C  0.31684698  0.40013673  0.37281686     0.35600
C302        C  0.31655549  0.35155604  0.37325213     0.35600
C303        C  0.23839717  0.46844755  0.38489152    -0.21900
C304        C  0.26907090  0.46799874  0.38523137    -0.21900
C305        C  0.23671797  0.28490639  0.38606705    -0.21900
C306        C  0.26746284  0.28455883  0.38600437    -0.21900
C307        C  0.16033305  0.39279837  0.36726991    -0.22900
C308        C  0.16001157  0.36199673  0.36780324    -0.22900
C309        C  0.34573011  0.39102437  0.36767410    -0.22900
C310        C  0.34554964  0.36024904  0.36794717    -0.22900
C311        C  0.19892183  0.43172651  0.37454187    -0.18300
C312        C  0.30777268  0.43032612  0.37534262    -0.18300
C313        C  0.30711006  0.32150753  0.37622050    -0.18300
C314        C  0.19780781  0.32264103  0.37623890    -0.18300
H315        H  0.22452108  0.48751710  0.38930958     0.14600
H316        H  0.28335550  0.48668504  0.38991138     0.14600
H317        H  0.22244201  0.26618742  0.39068503     0.14600
H318        H  0.28136019  0.26555177  0.39055407     0.14600
H319        H  0.14130090  0.40709650  0.36377902     0.12900
H320        H  0.14066723  0.34793749  0.36473979     0.12900
H321        H  0.36497001  0.40507404  0.36417677     0.12900
H322        H  0.36462928  0.34593270  0.36466519     0.12900
H323        H  0.25314116  0.40168775  0.36578151     0.26200
H324        H  0.25277088  0.35131169  0.36693758     0.26200
N325        N  0.20610144  0.12083090  0.62124276    -0.36600
N326        N  0.25344733  0.07638316  0.62469128    -0.57100
N327        N  0.29799040  0.12432622  0.62331016    -0.36600
N328        N  0.25065839  0.16871235  0.62317138    -0.57100
C329        C  0.18988646  0.09586556  0.62593296     0.27000
C330        C  0.18843846  0.14477414  0.62584165     0.27000
C331        C  0.31547056  0.10066053  0.62891525     0.27000
C332        C  0.31392794  0.14946792  0.62786597     0.27000
C333        C  0.23005545  0.05773210  0.62090004     0.35600
C334        C  0.27844485  0.05965408  0.62213586     0.35600
C335        C  0.22594668  0.18542268  0.61943348     0.35600
C336        C  0.27424552  0.18720541  0.61987877     0.35600
C337        C  0.16148240  0.10404703  0.63327164    -0.21900
C338        C  0.16058511  0.13488689  0.63325413    -0.21900
C339        C  0.34292138  0.11087550  0.63697877    -0.21900
C340        C  0.34194762  0.14169915  0.63630308    -0.21900
C341        C  0.24024152  0.02900090  0.61615150    -0.22900
C342        C  0.27087676  0.03021315  0.61693297    -0.22900
C343        C  0.23387208  0.21468020  0.61387215    -0.22900
C344        C  0.26448040  0.21579795  0.61411673    -0.22900
C345        C  0.19960662  0.06587448  0.62298364    -0.18300
C346        C  0.19631310  0.17529069  0.62269832    -0.18300
C347        C  0.30439600  0.17918730  0.62356617    -0.18300
C348        C  0.30796792  0.07011267  0.62572101    -0.18300
H349        H  0.14328756  0.08932237  0.63823150     0.14600
H350        H  0.14153751  0.14847324  0.63815507     0.14600
H351        H  0.36178521  0.09750460  0.64263546     0.14600
H352        H  0.35988198  0.15667976  0.64136390     0.14600
H353        H  0.22699299  0.00917596  0.61262378     0.12900
H354        H  0.28585152  0.01148982  0.61412433     0.12900
H355        H  0.21913546  0.23337799  0.61027505     0.12900
H356        H  0.27796056  0.23552409  0.61076241     0.12900
H357        H  0.22686696  0.12144469  0.61309637     0.26200
H358        H  0.27777931  0.12329917  0.61438049     0.26200
N359        N  0.49832531  0.17007691  0.87607111    -0.36600
N360        N  0.45229203  0.12381687  0.87748843    -0.57100
N361        N  0.49855343  0.07779689  0.87363581    -0.36600
N362        N  0.04358706  0.12478853  0.87498566    -0.57100
C363        C  0.47404470  0.18709615  0.88090626     0.27000
C364        C  0.01936559  0.18681249  0.87911978     0.27000
C365        C  0.47432490  0.06052672  0.87809443     0.27000
C366        C  0.02438575  0.06084096  0.87653288     0.27000
C367        C  0.43461169  0.14819749  0.87480097     0.35600
C368        C  0.43479605  0.09958114  0.87350066     0.35600
C369        C  0.06016217  0.14988485  0.87217263     0.35600
C370        C  0.06207467  0.10141998  0.87087459     0.35600
C371        C  0.48319871  0.21549961  0.88781948    -0.21900
C372        C  0.00912658  0.21447197  0.88685914    -0.21900
C373        C  0.48350248  0.03197400  0.88461018    -0.21900
C374        C  0.01650488  0.03211825  0.88363898    -0.21900
C375        C  0.40571687  0.13937186  0.86936138    -0.22900
C376        C  0.40583698  0.10859445  0.86852874    -0.22900
C377        C  0.08934466  0.14243857  0.86644751    -0.22900
C378        C  0.09054999  0.11170836  0.86559527    -0.22900
C379        C  0.44383767  0.17831078  0.87801032    -0.18300
C380        C  0.04977478  0.17938002  0.87600024    -0.18300
C381        C  0.05411751  0.07091029  0.87333076    -0.18300
C382        C  0.44413462  0.06936250  0.87549031    -0.18300
H383        H  0.46919060  0.23432763  0.89260004     0.14600
H384        H  0.02238827  0.23357060  0.89230682     0.14600
H385        H  0.46953586  0.01298382  0.88913688     0.14600
H386        H  0.03133655  0.01382528  0.88815423     0.14600
H387        H  0.38652647  0.15361074  0.86628871     0.12900
H388        H  0.38675064  0.09447111  0.86472561     0.12900
H389        H  0.10788650  0.15755243  0.86335818     0.12900
H390        H  0.11021771  0.09846348  0.86174507     0.12900
H391        H  0.49814149  0.14922231  0.86799948     0.26200
H392        H  0.49833232  0.09894026  0.86598828     0.26200
C393        C  0.13472108  0.21258897  0.19557135    -0.26300
C394        C  0.11027444  0.19506007  0.20285917    -0.14400
C395        C  0.08191069  0.20007689  0.19251201     0.36300
C396        C  0.07894882  0.22189898  0.17479947    -0.25700
C397        C  0.10368445  0.23840609  0.16696548    -0.15000
C398        C  0.13167975  0.23431201  0.17784533     0.37400
N399        N  0.15689212  0.25220450  0.17076699    -0.89200
H400        H  0.15637946  0.20928248  0.20368380     0.18500
H401        H  0.05749270  0.22517285  0.16633337     0.18500
N402        N  0.05643740  0.18241394  0.19935006    -0.88300
H403        H  0.17588572  0.24637871  0.18045565     0.35800
H404        H  0.15205608  0.27454046  0.17491032     0.40900
H405        H  0.06040942  0.16034083  0.19396089     0.40600
H406        H  0.03726003  0.18949726  0.19042797     0.35400
C407        C  0.07888258  0.03793485  0.17089355    -0.26300
C408        C  0.10301924  0.01952737  0.16458189    -0.14400
C409        C  0.13053171  0.02281094  0.17643998     0.36300
C410        C  0.13364654  0.04510018  0.19375090    -0.25700
C411        C  0.10976889  0.06406666  0.19979314    -0.15000
C412        C  0.08198289  0.06035337  0.18822427     0.37400
N413        N  0.05729237  0.07982674  0.19354723    -0.89200
H414        H  0.05783976  0.03549724  0.16164826     0.18500
H415        H  0.15486601  0.04747500  0.20274283     0.18500
N416        N  0.15518466  0.00336803  0.17090309    -0.88300
H417        H  0.03847350  0.07386651  0.18368602     0.35800
H418        H  0.06324852  0.10147954  0.18820520     0.40900
H419        H  0.14895853  0.98152519  0.17552710     0.40600
H420        H  0.17386738  0.00875478  0.18111710     0.35400
C421        C  0.14511292  0.20271750  0.34501719    -0.26300
C422        C  0.14747743  0.23337469  0.33937834    -0.14400
C423        C  0.14621543  0.24229602  0.31550362     0.36300
C424        C  0.14281659  0.22038428  0.29785548    -0.25700
C425        C  0.13993748  0.18996365  0.30365753    -0.15000
C426        C  0.14130139  0.18092927  0.32737081     0.37400
N427        N  0.13855080  0.14969899  0.33338941    -0.89200
H428        H  0.14619241  0.19578220  0.36328669     0.18500
H429        H  0.14156266  0.22709472  0.27953851     0.18500
N430        N  0.14744829  0.27356288  0.30932239    -0.88300
H431        H  0.13979137  0.14678988  0.35163058     0.35800
H432        H  0.15692103  0.13847308  0.32620143     0.40900
H433        H  0.12849781  0.28389600  0.31639919     0.40600
H434        H  0.14618885  0.27629270  0.29106575     0.35400
C435        C  0.16868198  0.02994445  0.32612052    -0.26300
C436        C  0.14353712  0.01351251  0.33337194    -0.14400
C437        C  0.11566320  0.01906503  0.32261364     0.36300
C438        C  0.11320211  0.04211988  0.30591274    -0.25700
C439        C  0.13808602  0.05942816  0.29925518    -0.15000
C440        C  0.16631960  0.05289132  0.30923771     0.37400
N441        N  0.19232814  0.07000809  0.30281435    -0.89200
H442        H  0.19007424  0.02571827  0.33441396     0.18500
H443        H  0.09162807  0.04648798  0.29797483     0.18500
N444        N  0.08997438  0.00123070  0.32864961    -0.88300
H445        H  0.21134802  0.06171121  0.31129017     0.35800
H446        H  0.18922962  0.09187378  0.30901985     0.40900
H447        H  0.09432508  0.97918161  0.32338798     0.40600
H448        H  0.07116781  0.00830194  0.31924839     0.35400
C449        C  0.34311117  0.45922106  0.07543553    -0.26300
C450        C  0.35733413  0.48511626  0.08393408    -0.14400
C451        C  0.35377872  0.00811148  0.07229414     0.36300
C452        C  0.33158111  0.01047219  0.05500042    -0.25700
C453        C  0.31286560  0.48920089  0.04864938    -0.15000
C454        C  0.32118700  0.46094717  0.05785367     0.37400
N455        N  0.30716203  0.43393077  0.04980038    -0.89200
H456        H  0.34857087  0.43748794  0.08284588     0.18500
H457        H  0.33004280  0.03085564  0.04465948     0.18500
N458        N  0.37449184  0.03231227  0.07612988    -0.88300
H459        H  0.29729338  0.42333040  0.06427613     0.35800
H460        H  0.32378132  0.41975530  0.04319877     0.40900
H461        H  0.39582871  0.02444875  0.07187255     0.40600
H462        H  0.37004011  0.05015198  0.06469549     0.35400
C463        C  0.16467533  0.51192593  0.05507898    -0.26300
C464        C  0.18227829  0.48707101  0.04879124    -0.14400
C465        C  0.17484864  0.95889653  0.06013225     0.36300
C466        C  0.15355782  0.95715659  0.07836864    -0.25700
C467        C  0.13981707  0.48298419  0.08557115    -0.15000
C468        C  0.14352150  0.51006497  0.07317767     0.37400
N469        N  0.12547191  0.53565177  0.07869851    -0.89200
H470        H  0.16725244  0.53307380  0.04586661     0.18500
H471        H  0.14931571  0.93579779  0.08687376     0.18500
N472        N  0.19073201  0.93235972  0.05303648    -0.88300
H473        H  0.11379206  0.54183541  0.06351520     0.35800
H474        H  0.13969655  0.55335277  0.08323983     0.40900
H475        H  0.18333655  0.92671242  0.03615291     0.40600
H476        H  0.18510615  0.91419820  0.06383351     0.35400
C477        C  0.34078319  0.04214702  0.92120769    -0.26300
C478        C  0.35876051  0.01748565  0.91545385    -0.14400
C479        C  0.35579610  0.49055664  0.92775269     0.36300
C480        C  0.33305646  0.48831125  0.94456412    -0.25700
C481        C  0.31443126  0.01248476  0.95075842    -0.15000
C482        C  0.31879978  0.04004107  0.93865757     0.37400
N483        N  0.30072483  0.06597780  0.94297857    -0.89200
H484        H  0.34331620  0.06302898  0.91160699     0.18500
H485        H  0.33053667  0.46743829  0.95416733     0.18500
N486        N  0.37531245  0.46562015  0.92368000    -0.88300
H487        H  0.30406950  0.07305826  0.96031159     0.35800
H488        H  0.27827637  0.06025278  0.94053360     0.40900
H489        H  0.36225660  0.44722964  0.91867509     0.40600
H490        H  0.38583914  0.46031042  0.93957348     0.35400
C491        C  0.18528661  0.03916146  0.93461405    -0.26300
C492        C  0.18401929  0.01323566  0.94867568    -0.14400
C493        C  0.16195739  0.48837377  0.94175894     0.36300
C494        C  0.14095310  0.49335787  0.92382818    -0.25700
C495        C  0.14182059  0.02245183  0.91259781    -0.15000
C496        C  0.16463324  0.04378480  0.91646647     0.37400
N497        N  0.16802664  0.06959747  0.90165044    -0.89200
H498        H  0.20296488  0.05545500  0.93727256     0.18500
H499        H  0.12499454  0.47591620  0.91945691     0.18500
N500        N  0.16194645  0.46043409  0.95443225    -0.88300
H501        H  0.14862418  0.08253978  0.90278481     0.35800
H502        H  0.17046547  0.06230945  0.88425903     0.38500
H503        H  0.14544172  0.44603410  0.94792357     0.40600
H504        H  0.15620543  0.46512044  0.97189340     0.35400
C505        C  0.41213489  0.19438568  0.18556219    -0.26300
C506        C  0.38549417  0.19368794  0.19870850    -0.14400
C507        C  0.36316706  0.21543659  0.19402481     0.36300
C508        C  0.36785708  0.23687837  0.17643077    -0.25700
C509        C  0.39419018  0.23711963  0.16306392    -0.15000
C510        C  0.41652861  0.21555939  0.16767487     0.37400
N511        N  0.44321824  0.21378840  0.15379969    -0.89200
H512        H  0.42935518  0.17777409  0.18872393     0.18500
H513        H  0.35051903  0.25323379  0.17284447     0.18500
N514        N  0.33572147  0.21671947  0.20697652    -0.88300
H515        H  0.45508934  0.23384410  0.15559907     0.35800
H516        H  0.43716867  0.21123081  0.13613379     0.40900
H517        H  0.34066196  0.21813496  0.22493323     0.40600
H518        H  0.32346017  0.19719960  0.20373163     0.35400
C519        C  0.36438272  0.04231099  0.19429434    -0.26300
C520        C  0.38707818  0.06353950  0.19811190    -0.14400
C521        C  0.41308542  0.06275459  0.18393940     0.36300
C522        C  0.41599235  0.04038986  0.16660135    -0.25700
C523        C  0.39309020  0.01951093  0.16272866    -0.15000
C524        C  0.36718227  0.02042781  0.17672671     0.37400
N525        N  0.34375779  0.99896614  0.17319428    -0.89200
H526        H  0.34437371  0.04261540  0.20504792     0.18500
H527        H  0.43568662  0.03985378  0.15549868     0.18500
N528        N  0.43591410  0.08522470  0.18661249    -0.88300
H529        H  0.32412395  0.01068238  0.16934575     0.35800
H530        H  0.34050038  0.98736022  0.18899015     0.40900
H531        H  0.42656295  0.10589386  0.18195049     0.40600
H532        H  0.45348544  0.08138871  0.17485618     0.35400
C533        C  0.38602442  0.21376482  0.30437352    -0.26300
C534        C  0.36334287  0.19250623  0.30049888    -0.14400
C535        C  0.33755773  0.19292687  0.31495553     0.36300
C536        C  0.33538053  0.21422817  0.33312170    -0.25700
C537        C  0.35826195  0.23505641  0.33711725    -0.15000
C538        C  0.38368966  0.23502898  0.32238345     0.37400
N539        N  0.40714714  0.25668638  0.32500775    -0.89200
H540        H  0.40572788  0.21391781  0.29326987     0.18500
H541        H  0.31593940  0.21431152  0.34451073     0.18500
N542        N  0.31429874  0.17098828  0.31191249    -0.88300
H543        H  0.41686306  0.25412343  0.34159526     0.35800
H544        H  0.39779432  0.27813860  0.32393940     0.40900
H545        H  0.30296564  0.17628154  0.29637369     0.40600
H546        H  0.29848570  0.17268961  0.32540263     0.35400
C547        C  0.38242981  0.01831438  0.32153701    -0.26300
C548        C  0.35630162  0.01828436  0.33516253    -0.14400
C549        C  0.33413140  0.04013363  0.33079932     0.36300
C550        C  0.33863782  0.06156973  0.31311877    -0.25700
C551        C  0.36506520  0.06204312  0.29971914    -0.15000
C552        C  0.38704721  0.03978693  0.30391700     0.37400
N553        N  0.41391359  0.03786395  0.29027879    -0.89200
H554        H  0.39952401  0.00158897  0.32477010     0.18500
H555        H  0.32159101  0.07843637  0.31021375     0.18500
N556        N  0.30739187  0.04180250  0.34462272    -0.88300
H557        H  0.42675811  0.05708224  0.29320466     0.35800
H558        H  0.40819204  0.03662834  0.27245651     0.40900
H559        H  0.31337008  0.04383540  0.36234487     0.40600
H560        H  0.29531236  0.02193440  0.34245148     0.35400
C561        C  0.15231699  0.29280604  0.07829064    -0.26300
C562        C  0.13544166  0.26832356  0.08620725    -0.14400
C563        C  0.13961321  0.24001037  0.07565245     0.36300
C564        C  0.16152623  0.23637341  0.05819229    -0.25700
C565        C  0.17927115  0.26068540  0.05080605    -0.15000
C566        C  0.17413757  0.28929183  0.06081093     0.37400
N567        N  0.19164294  0.31474882  0.05391815    -0.89200
H568        H  0.14932626  0.31465495  0.08633722     0.18500
H569        H  0.16461750  0.21439604  0.05040728     0.18500
N570        N  0.12141596  0.21499746  0.08245941    -0.88300
H571        H  0.20243310  0.32312079  0.06886591     0.35800
H572        H  0.17711681  0.33131771  0.04769478     0.40900
H573        H  0.13550569  0.19791260  0.08843825     0.40600
H574        H  0.11027632  0.20716599  0.06749205     0.35400
C575        C  0.31540194  0.28812493  0.06029507    -0.26300
C576        C  0.31098836  0.25910829  0.05109008    -0.14400
C577        C  0.32981635  0.23556940  0.05904174     0.36300
C578        C  0.35174655  0.24147837  0.07596741    -0.25700
C579        C  0.35556397  0.27030650  0.08547524    -0.15000
C580        C  0.33729229  0.29383546  0.07741379     0.37400
N581        N  0.34013530  0.32333629  0.08716605    -0.89200
H582        H  0.30134992  0.30652572  0.05457203     0.18500
H583        H  0.36585115  0.22322727  0.08193213     0.18500
N584        N  0.32771661  0.20555930  0.05015201    -0.88300
H585        H  0.31957227  0.32934072  0.09452162     0.35800
H586        H  0.34474284  0.33823284  0.07340621     0.40900
H587        H  0.33006765  0.20609526  0.03184243     0.40600
H588        H  0.30684512  0.19669074  0.05459368     0.35400
C589        C  0.16217407  0.26178433  0.94445742    -0.26300
C590        C  0.17941015  0.23667191  0.95074957    -0.14400
C591        C  0.17363251  0.20885896  0.93970988     0.36300
C592        C  0.15116138  0.20678008  0.92258976    -0.25700
C593        C  0.13449103  0.23204250  0.91600427    -0.15000
C594        C  0.13981578  0.25967650  0.92727875     0.37400
N595        N  0.12234826  0.28557840  0.92148182    -0.89200
H596        H  0.16596543  0.28323467  0.95293574     0.18500
H597        H  0.14742877  0.18550587  0.91381341     0.18500
N598        N  0.19115134  0.18288362  0.94515558    -0.88300
H599        H  0.13688893  0.30244328  0.91573943     0.35800
H600        H  0.11186629  0.29309173  0.93683831     0.40900
H601        H  0.20137517  0.17550681  0.92964775     0.40600
H602        H  0.17669246  0.16598244  0.95095616     0.35400
C603        C  0.32812003  0.26051468  0.94417606    -0.26300
C604        C  0.31120065  0.23535518  0.95096813    -0.14400
C605        C  0.31761898  0.20728002  0.94055651     0.36300
C606        C  0.34047427  0.20498409  0.92368075    -0.25700
C607        C  0.35690890  0.23028009  0.91664580    -0.15000
C608        C  0.35080354  0.25821847  0.92724945     0.37400
N609        N  0.36781199  0.28431125  0.92105441    -0.89200
H610        H  0.32385921  0.28222094  0.95208550     0.18500
H611        H  0.34468902  0.18346693  0.91543489     0.18500
N612        N  0.30042971  0.18119977  0.94641482    -0.88300
H613        H  0.37783582  0.29263522  0.93634376     0.35800
H614        H  0.35301718  0.30061014  0.91478039     0.40900
H615        H  0.31505803  0.16477728  0.95272372     0.40600
H616        H  0.29058921  0.17308635  0.93097950     0.35400
C617        C  0.41640726  0.51218098  0.44533079    -0.26300
C618        C  0.43725235  0.48916930  0.44918292    -0.14400
C619        C  0.43561303  0.46274610  0.43556080     0.36300
C620        C  0.41360547  0.46001400  0.41814576    -0.25700
C621        C  0.39328631  0.48330568  0.41395087    -0.15000
C622        C  0.39438374  0.50945259  0.42801383     0.37400
N623        N  0.37297633  0.53315527  0.42555155    -0.89200
H624        H  0.41711846  0.53237840  0.45594574     0.18500
H625        H  0.41289217  0.43992082  0.40740207     0.18500
N626        N  0.45271496  0.93588669  0.44103945    -0.88300
H627        H  0.35156846  0.52402094  0.42735843     0.35800
H628        H  0.37490162  0.54254394  0.40878382     0.40900
H629        H  0.46418766  0.93073166  0.42552213     0.40600
H630        H  0.43957136  0.91734308  0.44555753     0.35400
C631        C  0.42176881  0.49052622  0.55706151    -0.26300
C632        C  0.43809572  0.01393392  0.55161738    -0.14400
C633        C  0.43817968  0.04035339  0.56547491     0.36300
C634        C  0.41716989  0.04353877  0.58376874    -0.25700
C635        C  0.39665991  0.02063165  0.58879981    -0.15000
C636        C  0.40006634  0.49306474  0.57474664     0.37400
N637        N  0.38190388  0.46762860  0.58055970    -0.89200
H638        H  0.42451726  0.46905996  0.54837085     0.18500
H639        H  0.41725557  0.06359697  0.59455470     0.18500
N640        N  0.46009634  0.06340575  0.56142778    -0.88300
H641        H  0.39601806  0.45018397  0.58582069     0.35800
H642        H  0.37070848  0.46078821  0.56532282     0.40900
H643        H  0.48106542  0.05430461  0.56528159     0.40600
H644        H  0.45697713  0.08130588  0.57306829     0.35400
C645        C  0.08765729  0.49056802  0.55367210    -0.26300
C646        C  0.06697711  0.00781988  0.55065532    -0.14400
C647        C  0.06978243  0.03459161  0.56379601     0.36300
C648        C  0.09239494  0.03724589  0.58083225    -0.25700
C649        C  0.11236978  0.01362308  0.58507125    -0.15000
C650        C  0.10926165  0.49217105  0.57138786     0.37400
N651        N  0.12965222  0.46760040  0.57394985    -0.89200
H652        H  0.08657658  0.47052083  0.54290058     0.18500
H653        H  0.09390867  0.05760885  0.59120212     0.18500
N654        N  0.04918060  0.05880381  0.56044441    -0.88300
H655        H  0.12687458  0.45802340  0.59057897     0.35800
H656        H  0.15144696  0.47589875  0.57260462     0.40900
H657        H  0.06139893  0.07793353  0.55582924     0.40600
H658        H  0.03856142  0.06301722  0.57650537     0.35400
C659        C  0.07975386  0.00927468  0.43950320    -0.26300
C660        C  0.06854786  0.48916284  0.44953345    -0.14400
C661        C  0.07493159  0.46099772  0.43911938     0.36300
C662        C  0.09764143  0.45888498  0.42203020    -0.25700
C663        C  0.11400571  0.48422094  0.41495305    -0.15000
C664        C  0.10119438  0.00717037  0.42155821     0.37400
N665        N  0.11515893  0.03391746  0.41257538    -0.89200
H666        H  0.07355800  0.03131977  0.44586281     0.18500
H667        H  0.10179885  0.43754692  0.41349314     0.18500
N668        N  0.05791097  0.43479196  0.44536009    -0.88300
H669        H  0.10670080  0.05303140  0.42090206     0.35800
H670        H  0.13787910  0.03282275  0.41676604     0.40900
H671        H  0.06596507  0.41586309  0.43653087     0.40600
H672        H  0.03603639  0.43811555  0.43944383     0.35400
C673        C  0.08590196  0.24120075  0.44610445    -0.26300
C674        C  0.06761368  0.26539254  0.45270382    -0.14400
C675        C  0.07217618  0.29356759  0.44173122     0.36300
C676        C  0.09396510  0.29661518  0.42399234    -0.25700
C677        C  0.11133804  0.27202100  0.41687687    -0.15000
C678        C  0.10769830  0.24432827  0.42853154     0.37400
N679        N  0.12638236  0.21931729  0.42269939    -0.89200
H680        H  0.08329883  0.21957392  0.45459408     0.18500
H681        H  0.09662207  0.31805483  0.41521470     0.18500
N682        N  0.05416239  0.31892377  0.44791456    -0.88300
H683        H  0.11264554  0.20159153  0.41735976     0.35800
H684        H  0.13765831  0.21265162  0.43794542     0.40900
H685        H  0.06837492  0.33612292  0.45353689     0.40600
H686        H  0.04311681  0.32629244  0.43276059     0.35400
C687        C  0.06231514  0.21070095  0.56681894    -0.26300
C688        C  0.06339824  0.23694441  0.55312603    -0.14400
C689        C  0.08638857  0.25804455  0.55709167     0.36300
C690        C  0.10754010  0.25259205  0.57482372    -0.25700
C691        C  0.10638509  0.22647052  0.58857572    -0.15000
C692        C  0.08319909  0.20536342  0.58475156     0.37400
N693        N  0.07964707  0.17878618  0.59889249    -0.89200
H694        H  0.04458530  0.19451237  0.56397556     0.18500
H695        H  0.12522112  0.26876451  0.57790864     0.18500
N696        N  0.08853328  0.28463560  0.54283741    -0.88300
H697        H  0.05903759  0.18036704  0.60748356     0.35800
H698        H  0.09573803  0.17739239  0.61211657     0.40900
H699        H  0.09309214  0.27784717  0.52558477     0.40600
H700        H  0.10658937  0.29789694  0.54817289     0.35400
C701        C  0.40731618  0.23181537  0.54513435    -0.26300
C702        C  0.43708395  0.23602471  0.55192914    -0.14400
C703        C  0.44470041  0.23737107  0.57590944     0.36300
C704        C  0.42211379  0.23446677  0.59286292    -0.25700
C705        C  0.39208207  0.23067542  0.58621173    -0.15000
C706        C  0.38454784  0.22961186  0.56207961     0.37400
N707        N  0.35383589  0.22724628  0.55489766    -0.89200
H708        H  0.40177624  0.23120153  0.52656334     0.18500
H709        H  0.42793472  0.23518073  0.61137405     0.18500
N710        N  0.47528180  0.24187079  0.58286833    -0.88300
H711        H  0.35218589  0.22685058  0.53653767     0.35800
H712        H  0.34285746  0.24666710  0.56052844     0.40900
H713        H  0.48750554  0.22317558  0.57731485     0.40600
H714        H  0.47706816  0.24261937  0.60121409     0.35400
C715        C  0.41551198  0.23999892  0.44686486    -0.26300
C716        C  0.43719343  0.26221937  0.45087299    -0.14400
C717        C  0.43706685  0.28851528  0.43691108     0.36300
C718        C  0.41492270  0.29219947  0.41955037    -0.25700
C719        C  0.39352505  0.26980789  0.41549552    -0.15000
C720        C  0.39379006  0.24359184  0.42929927     0.37400
N721        N  0.37187787  0.22063954  0.42553070    -0.89200
H722        H  0.41535740  0.21976140  0.45745731     0.18500
H723        H  0.41496298  0.31208716  0.40855914     0.18500
N724        N  0.45999815  0.31083388  0.43982082    -0.88300
H725        H  0.36020535  0.21743087  0.44128088     0.35800
H726        H  0.38308163  0.20070020  0.42153635     0.40900
H727        H  0.48037176  0.30097388  0.43519094     0.40600
H728        H  0.45670216  0.32869066  0.42816137     0.35400
C729        C  0.12051421  0.26254065  0.67684720    -0.26300
C730        C  0.14778792  0.26127878  0.66477159    -0.14400
C731        C  0.17089991  0.28142842  0.67099340     0.36300
C732        C  0.16597328  0.30255148  0.68884413    -0.25700
C733        C  0.13814333  0.30465256  0.70026360    -0.15000
C734        C  0.11528441  0.28402317  0.69420289     0.37400
N735        N  0.08656287  0.28403555  0.70535561    -0.89200
H736        H  0.10269506  0.24711883  0.67223764     0.18500
H737        H  0.18369793  0.31819436  0.69317326     0.18500
N738        N  0.19888638  0.28210132  0.65872779    -0.88300
H739        H  0.07546270  0.30395702  0.70120975     0.35800
H740        H  0.08952890  0.28253698  0.72357597     0.40900
H741        H  0.19469241  0.28493058  0.64075703     0.40600
H742        H  0.20982602  0.26167389  0.66123675     0.35400
C743        C  0.13169394  0.28935623  0.80726388    -0.26300
C744        C  0.10781886  0.30763995  0.80003207    -0.14400
C745        C  0.07955744  0.30402312  0.81108132     0.36300
C746        C  0.07627627  0.28321462  0.82934386    -0.25700
C747        C  0.10045846  0.26578151  0.83691376    -0.15000
C748        C  0.12818256  0.26841603  0.82542178     0.37400
N749        N  0.15273299  0.24957239  0.83199195    -0.89200
H750        H  0.15331274  0.29125654  0.79878506     0.18500
H751        H  0.05484878  0.28119128  0.83811652     0.18500
N752        N  0.05403029  0.32168503  0.80483349    -0.88300
H753        H  0.17053917  0.26335457  0.83702208     0.35800
H754        H  0.15934802  0.23740948  0.81714275     0.40900
H755        H  0.04831264  0.31714320  0.78736085     0.40600
H756        H  0.05943450  0.34439983  0.80663367     0.35400
C757        C  0.13625998  0.45349738  0.80702601    -0.26300
C758        C  0.11090537  0.43892174  0.79796925    -0.14400
C759        C  0.08225499  0.44773572  0.80612206     0.36300
C760        C  0.07998105  0.46960518  0.82392045    -0.25700
C761        C  0.10549949  0.48347519  0.83332409    -0.15000
C762        C  0.13381528  0.47579224  0.82424234     0.37400
N763        N  0.16023440  0.49091712  0.83216626    -0.89200
H764        H  0.15834390  0.44772882  0.80064875     0.18500
H765        H  0.05816081  0.47549157  0.83076956     0.18500
N766        N  0.05559531  0.43417849  0.79680921    -0.88300
H767        H  0.17489238  0.47483992  0.83897258     0.35800
H768        H  0.17048565  0.50089472  0.81758627     0.40900
H769        H  0.05322516  0.44165132  0.77945936     0.40600
H770        H  0.03669634  0.44182295  0.80581899     0.35400
C771        C  0.11619846  0.45526795  0.69319004    -0.26300
C772        C  0.14030254  0.43657299  0.69917934    -0.14400
C773        C  0.16810377  0.44063556  0.68766983     0.36300
C774        C  0.17068604  0.46263358  0.66999976    -0.25700
C775        C  0.14626852  0.48066188  0.66373804    -0.15000
C776        C  0.11899162  0.47725004  0.67575103     0.37400
N777        N  0.14285802  0.01997091  0.69051182    -0.89200
H778        H  0.09491815  0.45288914  0.70211851     0.18500
H779        H  0.19165948  0.46531312  0.66068235     0.18500
N780        N  0.19322709  0.42180910  0.69318206    -0.88300
H781        H  0.13862602  0.02368470  0.70837949     0.35800
H782        H  0.12453050  0.02855099  0.68129853     0.40900
H783        H  0.20071985  0.42784724  0.70995249     0.40600
H784        H  0.21102200  0.42617337  0.68174074     0.35400
C785        C  0.41708570  0.28040280  0.82955524    -0.26300
C786        C  0.39236472  0.26403905  0.83764801    -0.14400
C787        C  0.36440195  0.26826428  0.82670754     0.36300
C788        C  0.36133198  0.28958422  0.80866511    -0.25700
C789        C  0.38585538  0.30671154  0.80095644    -0.15000
C790        C  0.41411324  0.30165921  0.81143255     0.37400
N791        N  0.43973954  0.31868798  0.80433181    -0.89200
H792        H  0.43868469  0.27737104  0.83785118     0.18500
H793        H  0.33958114  0.29267793  0.80065075     0.18500
N794        N  0.33912050  0.25062129  0.83368301    -0.88300
H795        H  0.45619760  0.30367914  0.79868935     0.35800
H796        H  0.44792785  0.33010665  0.81906188     0.40900
H797        H  0.33139562  0.23896414  0.81891647     0.40600
H798        H  0.32222863  0.26523493  0.83916338     0.35400
C799        C  0.33300929  0.30781256  0.68746114    -0.26300
C800        C  0.36076737  0.30945009  0.69898661    -0.14400
C801        C  0.38419637  0.29019381  0.69188476     0.36300
C802        C  0.37932001  0.26992694  0.67344268    -0.25700
C803        C  0.35170186  0.26846451  0.66187471    -0.15000
C804        C  0.32836226  0.28782295  0.66884316     0.37400
N805        N  0.30037216  0.28880096  0.65661267    -0.89200
H806        H  0.31504815  0.32282436  0.69244926     0.18500
H807        H  0.39723676  0.25512799  0.66796487     0.18500
N808        N  0.41281363  0.29115192  0.70338785    -0.88300
H809        H  0.28973276  0.26805763  0.65827327     0.35800
H810        H  0.30457017  0.29283909  0.63878042     0.40900
H811        H  0.42770485  0.27606284  0.69558433     0.40600
H812        H  0.40972181  0.28390101  0.72072911     0.35400
C813        C  0.38774838  0.45567352  0.69331068    -0.26300
C814        C  0.36240766  0.43927883  0.70037022    -0.14400
C815        C  0.33459247  0.44554241  0.68954050     0.36300
C816        C  0.33302551  0.46751330  0.67174311    -0.25700
C817        C  0.35856250  0.48327503  0.66436045    -0.15000
C818        C  0.38608856  0.47773556  0.67568224     0.37400
N819        N  0.41221616  0.49478287  0.66942758    -0.89200
H820        H  0.40905408  0.45145282  0.70172996     0.18500
H821        H  0.31188424  0.47172482  0.66305502     0.18500
N822        N  0.30816316  0.42921358  0.69615565    -0.88300
H823        H  0.43067186  0.48792439  0.67934191     0.35800
H824        H  0.40351496  0.02434240  0.68020746     0.40900
H825        H  0.31115474  0.40691429  0.69094003     0.40600
H826        H  0.28953183  0.43715385  0.68696397     0.35400
C827        C  0.36234214  0.45423656  0.80882405    -0.26300
C828        C  0.38672448  0.43653877  0.80180935    -0.14400
C829        C  0.41497318  0.44120214  0.81242577     0.36300
C830        C  0.41804785  0.46334981  0.82979475    -0.25700
C831        C  0.39350660  0.48045242  0.83710121    -0.15000
C832        C  0.36546571  0.47628216  0.82623821     0.37400
N833        N  0.34035001  0.49455244  0.83286402    -0.89200
H834        H  0.34075921  0.45106666  0.80054687     0.18500
H835        H  0.43947089  0.46653040  0.83833959     0.18500
N836        N  0.44023903  0.42297893  0.80610022    -0.88300
H837        H  0.32132692  0.48850439  0.82328575     0.35800
H838        H  0.34535741  0.51671593  0.82826615     0.40900
H839        H  0.43569921  0.40104924  0.81161746     0.40600
H840        H  0.45937280  0.42983066  0.81520214     0.35400
O841        O  0.35812384  0.90305532  0.77964076    -0.72900
O842        O  0.34377931  0.84295568  0.72828232    -0.73900
O843        O  0.35680779  0.83917882  0.77710404    -0.62500
O844        O  0.34516330  0.90638606  0.73093595    -0.70900
O845        O  0.39372518  0.90587972  0.72326005    -0.70500
O846        O  0.40541744  0.83916241  0.76994324    -0.61700
O847        O  0.39254175  0.84213803  0.72124060    -0.74200
O848        O  0.40662447  0.90304654  0.77195736    -0.73000
Cu849      Cu  0.34929783  0.87290606  0.75431391     1.04600
Cu850      Cu  0.40125580  0.87253758  0.74632371     1.04300
C851        C  0.38444730  0.91294155  0.78377679     0.93300
C852        C  0.36612252  0.83283814  0.71677516     0.92400
C853        C  0.38285905  0.82838637  0.78085724     0.84600
C854        C  0.36764676  0.91663660  0.71963835     0.90800
O855        O  0.14038633  0.84144237  0.77827345    -0.72900
O856        O  0.15607840  0.90461791  0.72988295    -0.73900
O857        O  0.14174344  0.90522472  0.77846555    -0.62500
O858        O  0.15426779  0.84112588  0.72974152    -0.70900
O859        O  0.10587166  0.84244432  0.72159626    -0.70500
O860        O  0.09341832  0.90609926  0.77019255    -0.61700
O861        O  0.10759019  0.90596918  0.72145417    -0.74200
O862        O  0.09206498  0.84243204  0.77001986    -0.73000
Cu863      Cu  0.14979263  0.87310612  0.75444368     1.04600
Cu864      Cu  0.09805008  0.87433453  0.74554023     1.04300
C865        C  0.11391299  0.83160474  0.78170006     0.93300
C866        C  0.13432601  0.91493715  0.71786736     0.92400
C867        C  0.11559682  0.91588659  0.78204430     0.84600
C868        C  0.13181464  0.83146150  0.71807205     0.90800
O869        O  0.47088681  0.71957079  0.52071020    -0.72900
O870        O  0.03331661  0.73354485  0.47295644    -0.73900
O871        O  0.03295374  0.71873307  0.52156115    -0.62500
O872        O  0.47116608  0.73352458  0.47207547    -0.70900
O873        O  0.46981464  0.78200528  0.48069269    -0.70500
O874        O  0.03377020  0.76743687  0.52949544    -0.61700
O875        O  0.03247029  0.78212013  0.48095354    -0.74200
O876        O  0.47063244  0.76812987  0.52958726    -0.73000
Cu877      Cu  0.50284442  0.72564284  0.49633539     1.04600
Cu878      Cu  0.50184495  0.77763584  0.50511129     1.04300
C879        C  0.46103821  0.74144434  0.53294800     0.93300
C880        C  0.04314895  0.76011599  0.46928284     0.92400
C881        C  0.04352210  0.74088800  0.53316603     0.84600
C882        C  0.46027935  0.75970684  0.46873553     0.90800
C883        C  0.35100590  0.74671965  0.64190806     0.03200
C884        C  0.32894562  0.72441204  0.64179660    -0.13000
C885        C  0.32808467  0.70299338  0.62369422     0.00700
C886        C  0.34975294  0.70389761  0.60575309    -0.11500
C887        C  0.37192618  0.72631697  0.60563066     0.03100
C888        C  0.37238172  0.74751830  0.62389976    -0.10900
H889        H  0.31281434  0.72330904  0.65600858     0.08700
H890        H  0.34942077  0.68699036  0.59205410     0.06300
H891        H  0.38932506  0.76492159  0.62407638     0.06100
C892        C  0.12905544  0.72290725  0.60818271     0.03200
C893        C  0.15172230  0.70117395  0.60803443    -0.13000
C894        C  0.17220535  0.69949973  0.62671594     0.00700
C895        C  0.17004115  0.71978425  0.64553818    -0.11500
C896        C  0.14794871  0.74207297  0.64550072     0.03100
C897        C  0.12745270  0.74335891  0.62687643    -0.10900
H898        H  0.15355696  0.68573911  0.59336204     0.08700
H899        H  0.18545253  0.71804974  0.66017979     0.06300
H900        H  0.11024055  0.76047586  0.62686798     0.06100
O901        O  0.46926609  0.98274037  0.52782178    -0.72900
O902        O  0.03248698  0.96549097  0.47921934    -0.73900
O903        O  0.03281663  0.97768065  0.52840260    -0.62500
O904        O  0.46954026  0.96982658  0.47870086    -0.70900
O905        O  0.47109425  0.51972840  0.47094598    -0.70500
O906        O  0.03402065  0.53264306  0.51992239    -0.61700
O907        O  0.03368190  0.51949224  0.47091237    -0.74200
O908        O  0.47272474  0.53287974  0.51994364    -0.73000
Cu909      Cu  0.50103639  0.97477714  0.50353411     1.04600
Cu910      Cu  0.50371251  0.52729801  0.49444129     1.04300
C911        C  0.46258515  0.51064038  0.53174570     0.93300
C912        C  0.04308146  0.98786305  0.46788814     0.92400
C913        C  0.04404169  0.51023315  0.53153656     0.84600
C914        C  0.45933235  0.99223760  0.46724053     0.90800
C915        C  0.13224553  0.51991208  0.60566667     0.03200
C916        C  0.15478940  0.54182244  0.60587562    -0.13000
C917        C  0.17485415  0.54363294  0.62485217     0.00700
C918        C  0.17209837  0.52355022  0.64376031    -0.11500
C919        C  0.14922131  0.50200947  0.64392795     0.03100
C920        C  0.13251242  0.99698179  0.62378746    -0.10900
H921        H  0.15683951  0.55734144  0.59126541     0.08700
H922        H  0.18743072  0.52505463  0.65848328     0.06300
H923        H  0.11491238  0.98026914  0.62445049     0.06100
C924        C  0.37446008  0.52319033  0.60637429     0.03200
C925        C  0.35194875  0.54515595  0.60637992    -0.13000
C926        C  0.33119334  0.54664771  0.62494869     0.00700
C927        C  0.33352205  0.52650538  0.64388254    -0.11500
C928        C  0.35626862  0.50482169  0.64438926     0.03100
C929        C  0.37781970  0.00452951  0.62817690    -0.10900
H930        H  0.35013324  0.56064714  0.59173726     0.08700
H931        H  0.31774422  0.52796027  0.65831709     0.06300
H932        H  0.39507286  0.98747004  0.62852661     0.06100
O933        O  0.21713747  0.76760815  0.97119008    -0.72900
O934        O  0.28003029  0.77837307  0.02095672    -0.73900
O935        O  0.28069039  0.76476740  0.97215042    -0.62500
O936        O  0.21673173  0.78157237  0.01982470    -0.70900
O937        O  0.21418950  0.73296365  0.02777724    -0.70500
O938        O  0.27827677  0.71620427  0.98009831    -0.61700
O939        O  0.27739126  0.72983968  0.02886903    -0.74200
O940        O  0.21506476  0.71903542  0.97935244    -0.73000
Cu941      Cu  0.24875617  0.77477699  0.99571465     1.04600
Cu942      Cu  0.24616391  0.72285794  0.00432478     1.04300
C943        C  0.20602313  0.74157561  0.96748400     0.93300
C944        C  0.28875373  0.75561545  0.03282167     0.92400
C945        C  0.28965731  0.73793462  0.96846532     0.84600
C946        C  0.20525032  0.75983276  0.03135557     0.90800
C947        C  0.39378216  0.73921156  0.85492573     0.03200
C948        C  0.41611210  0.71711765  0.85552884    -0.13000
C949        C  0.41871134  0.69784859  0.87492888     0.00700
C950        C  0.39868394  0.70031297  0.89382399    -0.11500
C951        C  0.37668962  0.72269970  0.89377546     0.03100
C952        C  0.37453135  0.74214074  0.87437761    -0.10900
H953        H  0.43131933  0.71456875  0.84081457     0.08700
H954        H  0.40069081  0.68527001  0.90874038     0.06300
H955        H  0.35780660  0.75968745  0.87453044     0.06100
C956        C  0.10123027  0.74305247  0.85521927     0.03200
C957        C  0.07849090  0.72146972  0.85600603    -0.13000
C958        C  0.07516270  0.70311550  0.87583024     0.00700
C959        C  0.09420196  0.70671484  0.89519800    -0.11500
C960        C  0.11671595  0.72860820  0.89474214     0.03100
C961        C  0.12044133  0.74632422  0.87454173    -0.10900
H962        H  0.06363933  0.71864093  0.84109394     0.08700
H963        H  0.09147579  0.69249444  0.91053775     0.06300
H964        H  0.13795346  0.76313695  0.87409765     0.06100
O965        O  0.40492884  0.65947962  0.22956510    -0.72900
O966        O  0.39463204  0.59425015  0.27757971    -0.73900
O967        O  0.40618727  0.59600418  0.22838912    -0.62500
O968        O  0.39358568  0.65796609  0.27875028    -0.70900
O969        O  0.34480322  0.65720179  0.27197857    -0.70500
O970        O  0.35732741  0.59458546  0.22207793    -0.61700
O971        O  0.34572727  0.59395321  0.27122341    -0.74200
O972        O  0.35624715  0.65820543  0.22282791    -0.73000
Cu973      Cu  0.40154207  0.62694042  0.25383657     1.04600
Cu974      Cu  0.34935671  0.62597005  0.24675733     1.04300
C975        C  0.38202829  0.66915614  0.21848219     0.93300
C976        C  0.36860551  0.58389966  0.28205445     0.92400
C977        C  0.38372984  0.58556359  0.21717348     0.84600
C978        C  0.36722625  0.66726132  0.28344942     0.90800
O979        O  0.27834909  0.51862693  0.02642205    -0.72900
O980        O  0.21579098  0.52963817  0.97684011    -0.73900
O981        O  0.21500229  0.51763299  0.02584470    -0.62500
O982        O  0.27890980  0.53059049  0.97766827    -0.70900
O983        O  0.28003711  0.98170630  0.97211929    -0.70500
O984        O  0.21520022  0.96878825  0.02007275    -0.61700
O985        O  0.21643016  0.98195780  0.97120560    -0.74200
O986        O  0.27851105  0.96852067  0.02092365    -0.73000
Cu987      Cu  0.24694167  0.52578644  0.00195051     1.04600
Cu988      Cu  0.24753007  0.97353593  0.99577119     1.04300
C989        C  0.28828304  0.99095429  0.03260208     0.93300
C990        C  0.20593542  0.50685133  0.96562918     0.92400
C991        C  0.20480647  0.99120405  0.03143301     0.84600
C992        C  0.28949625  0.50820921  0.96644636     0.90800
C993        C  0.10237496  0.50507492  0.85312091     0.03200
C994        C  0.12321000  0.00452699  0.87404135    -0.13000
C995        C  0.11944333  0.52331586  0.89130154     0.00700
C996        C  0.09727701  0.54547565  0.89094352    -0.11500
C997        C  0.07755020  0.54754944  0.87182225     0.03100
C998        C  0.08024198  0.52746479  0.85288882    -0.10900
H999        H  0.14017374  0.98719236  0.87467034     0.08700
H1000       H  0.09493387  0.56073188  0.90567682     0.06300
H1001       H  0.06525042  0.52947300  0.83799544     0.06100
C1002       C  0.38086962  0.51915390  0.89538911     0.03200
C1003       C  0.40339714  0.54097697  0.89508405    -0.13000
C1004       C  0.42323956  0.54263602  0.87599753     0.00700
C1005       C  0.42018694  0.52274154  0.85705836    -0.11500
C1006       C  0.39720302  0.50134869  0.85704125     0.03100
C1007       C  0.37803652  0.99976177  0.87670396    -0.10900
H1008       H  0.40549436  0.55662963  0.90959457     0.08700
H1009       H  0.43517888  0.52446498  0.84212392     0.06300
H1010       H  0.36144513  0.98203834  0.87716786     0.06100
O1011       O  0.15705303  0.59770166  0.26967274    -0.72900
O1012       O  0.14141648  0.66047073  0.22051485    -0.73900
O1013       O  0.15596326  0.66153613  0.26903064    -0.62500
O1014       O  0.14194231  0.59672705  0.22094804    -0.70900
O1015       O  0.09357615  0.59686263  0.22936239    -0.70500
O1016       O  0.10769690  0.66009040  0.27818391    -0.61700
O1017       O  0.09319553  0.66046815  0.22937033    -0.74200
O1018       O  0.10876717  0.59651975  0.27809168    -0.73000
Cu1019     Cu  0.15075974  0.62912171  0.24469978     1.04600
Cu1020     Cu  0.09913414  0.62847404  0.25406316     1.04300
C1021       C  0.13540554  0.58715748  0.28179792     0.93300
C1022       C  0.11502253  0.67051778  0.21714411     0.92400
C1023       C  0.13390002  0.67064866  0.28136628     0.84600
C1024       C  0.11548793  0.58682799  0.21732514     0.90800
C1025       C  0.09981251  0.99824181  0.14460253     0.03200
C1026       C  0.07696161  0.97658816  0.14429912    -0.13000
C1027       C  0.07458859  0.95632394  0.12542145     0.00700
C1028       C  0.09466641  0.95834805  0.10648384    -0.11500
C1029       C  0.11712151  0.98035622  0.10629419     0.03100
C1030       C  0.12045036  0.50079037  0.12439391    -0.10900
H1031       H  0.06149453  0.97502989  0.15893422     0.08700
H1032       H  0.09257621  0.94293626  0.09181630     0.06300
H1033       H  0.13783321  0.51774942  0.12453938     0.06100
C1034       C  0.39556879  0.99803354  0.14304142     0.03200
C1035       C  0.41764668  0.97571226  0.14299026    -0.13000
C1036       C  0.41900709  0.95484075  0.12448706     0.00700
C1037       C  0.39859892  0.95674098  0.10583844    -0.11500
C1038       C  0.37701278  0.97944085  0.10552853     0.03100
C1039       C  0.37680809  0.50134687  0.12321977    -0.10900
H1040       H  0.43339414  0.97426393  0.15743921     0.08700
H1041       H  0.39982968  0.94083458  0.09143352     0.06300
H1042       H  0.35911480  0.51790283  0.12406975     0.06100
C1043       C  0.37802661  0.77258545  0.10562066     0.03200
C1044       C  0.37682571  0.75325324  0.12508403    -0.13000
C1045       C  0.39686939  0.75640399  0.14388061     0.00700
C1046       C  0.41809648  0.77952362  0.14329101    -0.11500
C1047       C  0.42007794  0.79851415  0.12367323     0.03100
C1048       C  0.40009098  0.79498794  0.10483956    -0.10900
H1049       H  0.35997393  0.73577726  0.12573977     0.08700
H1050       H  0.43275897  0.78319898  0.15817307     0.06300
H1051       H  0.40180509  0.80963462  0.08966570     0.06100
C1052       C  0.11712248  0.77614139  0.10460214     0.03200
C1053       C  0.11994627  0.75675640  0.12391786    -0.13000
C1054       C  0.10043720  0.75876227  0.14315651     0.00700
C1055       C  0.07763976  0.78033737  0.14287848    -0.11500
C1056       C  0.07495220  0.80024326  0.12384350     0.03100
C1057       C  0.09482147  0.79821178  0.10477739    -0.10900
H1058       H  0.13733823  0.73984138  0.12388892     0.08700
H1059       H  0.06237937  0.78208461  0.15763573     0.06300
H1060       H  0.09260182  0.81346319  0.09001165     0.06100
C1061       C  0.14645584  0.99226430  0.35336510     0.03200
C1062       C  0.13316328  0.50168381  0.37586024    -0.13000
C1063       C  0.13007019  0.97570193  0.39233677     0.00700
C1064       C  0.15353427  0.95476483  0.39275203    -0.11500
C1065       C  0.17346990  0.95263488  0.37370968     0.03100
C1066       C  0.17002936  0.97156573  0.35419899    -0.10900
H1067       H  0.11636478  0.51917882  0.37614619     0.08700
H1068       H  0.15651449  0.94028048  0.40789788     0.06300
H1069       H  0.18544138  0.96981516  0.33953929     0.06100
C1070       C  0.35375398  0.99676437  0.35491471     0.03200
C1071       C  0.33162007  0.97444458  0.35507708    -0.13000
C1072       C  0.32946601  0.95433536  0.37404785     0.00700
C1073       C  0.34942377  0.95684832  0.39303571    -0.11500
C1074       C  0.37151837  0.97921185  0.39307383     0.03100
C1075       C  0.37391866  0.49974770  0.37500241    -0.10900
H1076       H  0.31636844  0.97239763  0.34035044     0.08700
H1077       H  0.34761226  0.94153446  0.40779846     0.06300
H1078       H  0.39096831  0.51703930  0.37460564     0.06100
C1079       C  0.37003515  0.77199314  0.39659294     0.03200
C1080       C  0.34898990  0.79529018  0.39551993    -0.13000
C1081       C  0.32976377  0.79778770  0.37609824     0.00700
C1082       C  0.33200105  0.77718238  0.35747684    -0.11500
C1083       C  0.35353513  0.75436041  0.35813197     0.03100
C1084       C  0.37209076  0.75162323  0.37784981    -0.10900
H1085       H  0.34722957  0.81117754  0.40989706     0.08700
H1086       H  0.31725378  0.77914209  0.34242168     0.06300
H1087       H  0.38853081  0.73379171  0.37842566     0.06100
C1088       C  0.13175092  0.77364069  0.39532718     0.03200
C1089       C  0.12861241  0.75461513  0.37578805    -0.13000
C1090       C  0.14856686  0.75612437  0.35675648     0.00700
C1091       C  0.17168745  0.77740519  0.35720132    -0.11500
C1092       C  0.17441673  0.79736036  0.37615443     0.03100
C1093       C  0.15447484  0.79541845  0.39521310    -0.10900
H1094       H  0.11035752  0.73863081  0.37530642     0.08700
H1095       H  0.18754888  0.77858789  0.34281224     0.06300
H1096       H  0.15689204  0.81063168  0.40997175     0.06100
N1097       N  0.49667012  0.92320305  0.12464610    -0.36600
N1098       N  0.45091889  0.87692920  0.12304630    -0.57100
N1099       N  0.49743922  0.83113930  0.12434607    -0.36600
N1100       N  0.04300707  0.87808719  0.12442343    -0.57100
C1101       C  0.47216376  0.94008807  0.12043948     0.27000
C1102       C  0.02120131  0.94093037  0.12194791     0.27000
C1103       C  0.47319215  0.81391385  0.11988674     0.27000
C1104       C  0.02148025  0.81464390  0.12081082     0.27000
C1105       C  0.43322760  0.90099636  0.12690202     0.35600
C1106       C  0.43353436  0.85245268  0.12619194     0.35600
C1107       C  0.06051468  0.90235807  0.12826837     0.35600
C1108       C  0.06058242  0.85377381  0.12756392     0.35600
C1109       C  0.48078227  0.96837538  0.11282585    -0.21900
C1110       C  0.01203304  0.96902724  0.11437025    -0.21900
C1111       C  0.48236033  0.78551612  0.11299278    -0.21900
C1112       C  0.01271027  0.78631185  0.11339127    -0.21900
C1113       C  0.40441576  0.89177588  0.13223445    -0.22900
C1114       C  0.40459635  0.86100940  0.13174767    -0.22900
C1115       C  0.08936436  0.89342150  0.13365751    -0.22900
C1116       C  0.08941678  0.86265212  0.13320004    -0.22900
C1117       C  0.44226362  0.93119872  0.12432203    -0.18300
C1118       C  0.05130059  0.93249675  0.12556997    -0.18300
C1119       C  0.05150939  0.82369372  0.12414625    -0.18300
C1120       C  0.44302866  0.82248580  0.12316190    -0.18300
H1121       H  0.46646149  0.98702822  0.10819419     0.14600
H1122       H  0.02601515  0.98795349  0.10971315     0.14600
H1123       H  0.46836384  0.76655482  0.10846722     0.14600
H1124       H  0.02698099  0.76774230  0.10847573     0.14600
H1125       H  0.38520899  0.90574173  0.13594853     0.12900
H1126       H  0.38556179  0.84660958  0.13506107     0.12900
H1127       H  0.10845518  0.90758111  0.13735970     0.12900
H1128       H  0.10857433  0.84845319  0.13650736     0.12900
H1129       H  0.49699753  0.90251934  0.13304369     0.26200
H1130       H  0.49728632  0.85204132  0.13236606     0.26200
N1131       N  0.25180392  0.92179814  0.37254669    -0.36600
N1132       N  0.20600336  0.87529125  0.37486799    -0.57100
N1133       N  0.25214036  0.82951939  0.37408927    -0.36600
N1134       N  0.29807679  0.87598477  0.37502506    -0.57100
C1135       C  0.22727129  0.93866066  0.37693322     0.27000
C1136       C  0.27602343  0.93911720  0.37697076     0.27000
C1137       C  0.22786587  0.81257392  0.37921707     0.27000
C1138       C  0.27654834  0.81283986  0.37912628     0.27000
C1139       C  0.18848141  0.89932766  0.37055916     0.35600
C1140       C  0.18867167  0.85083840  0.37145549     0.35600
C1141       C  0.31562108  0.90030575  0.37151397     0.35600
C1142       C  0.31578030  0.85166923  0.37218338     0.35600
C1143       C  0.23599195  0.96716326  0.38392823    -0.21900
C1144       C  0.26674871  0.96746274  0.38394503    -0.21900
C1145       C  0.23694730  0.78470662  0.38735065    -0.21900
C1146       C  0.26767196  0.78486227  0.38729167    -0.21900
C1147       C  0.15990713  0.89010619  0.36446800    -0.22900
C1148       C  0.16003183  0.85935712  0.36503850    -0.22900
C1149       C  0.34465117  0.89138220  0.36663340    -0.22900
C1150       C  0.34474978  0.86058183  0.36706683    -0.22900
C1151       C  0.19725864  0.92949177  0.37365998    -0.18300
C1152       C  0.30624761  0.93046919  0.37396865    -0.18300
C1153       C  0.30660387  0.82158271  0.37552293    -0.18300
C1154       C  0.19776894  0.82100115  0.37557790    -0.18300
H1155       H  0.22167785  0.98586095  0.38845943     0.14600
H1156       H  0.28068999  0.98644109  0.38854007     0.14600
H1157       H  0.22289018  0.76612251  0.39267238     0.14600
H1158       H  0.28186420  0.76640532  0.39260717     0.14600
H1159       H  0.14085566  0.90407729  0.36028954     0.12900
H1160       H  0.14111730  0.84493777  0.36138168     0.12900
H1161       H  0.36383502  0.90556565  0.36328201     0.12900
H1162       H  0.36401620  0.84638992  0.36415050     0.12900
H1163       H  0.25198833  0.90083915  0.36458886     0.26200
H1164       H  0.25209250  0.84988589  0.36521085     0.26200
N1165       N  0.20563239  0.62214358  0.62461963    -0.36600
N1166       N  0.25245834  0.57672968  0.62560368    -0.57100
N1167       N  0.29754943  0.62411569  0.62287397    -0.36600
N1168       N  0.25077974  0.66949920  0.62577294    -0.57100
C1169       C  0.18902312  0.59729619  0.62871901     0.27000
C1170       C  0.18817999  0.64619276  0.62932787     0.27000
C1171       C  0.31509967  0.60003990  0.62738271     0.27000
C1172       C  0.31417416  0.64897910  0.62700872     0.27000
C1173       C  0.22854282  0.55848364  0.62271341     0.35600
C1174       C  0.27701143  0.55948789  0.62244780     0.35600
C1175       C  0.22608195  0.68666848  0.62320834     0.35600
C1176       C  0.27447253  0.68773165  0.62192256     0.35600
C1177       C  0.16059106  0.60567199  0.63590750    -0.21900
C1178       C  0.16007431  0.63649959  0.63632393    -0.21900
C1179       C  0.34324456  0.60974941  0.63422005    -0.21900
C1180       C  0.34265883  0.64057097  0.63399197    -0.21900
C1181       C  0.23796789  0.52946809  0.61802733    -0.22900
C1182       C  0.26862725  0.53009760  0.61787612    -0.22900
C1183       C  0.23414736  0.71598405  0.61801125    -0.22900
C1184       C  0.26475896  0.71664118  0.61713993    -0.22900
C1185       C  0.19830429  0.56726309  0.62522030    -0.18300
C1186       C  0.19633020  0.67665982  0.62635645    -0.18300
C1187       C  0.30480438  0.67908363  0.62387737    -0.18300
C1188       C  0.30693592  0.56950987  0.62465692    -0.18300
H1189       H  0.14207442  0.59108951  0.64036627     0.14600
H1190       H  0.14107030  0.65021059  0.64112361     0.14600
H1191       H  0.36228474  0.59604925  0.63894340     0.14600
H1192       H  0.36114895  0.65512614  0.63854154     0.14600
H1193       H  0.22421482  0.50983502  0.61507791     0.12900
H1194       H  0.28307364  0.51104190  0.61475607     0.12900
H1195       H  0.21952464  0.73496312  0.61510402     0.12900
H1196       H  0.27828079  0.73623505  0.61345066     0.12900
H1197       H  0.22644270  0.62267362  0.61660382     0.26200
H1198       H  0.27660219  0.62361170  0.61505987     0.26200
N1199       N  0.49716173  0.66838345  0.87430488    -0.36600
N1200       N  0.45270002  0.62102644  0.87577630    -0.57100
N1201       N  0.50007365  0.57639132  0.87272611    -0.36600
N1202       N  0.04464841  0.62483659  0.87420199    -0.57100
C1203       C  0.47232696  0.68451218  0.87913414     0.27000
C1204       C  0.02220927  0.68757442  0.87970197     0.27000
C1205       C  0.47642356  0.55869399  0.87797215     0.27000
C1206       C  0.02392789  0.56150217  0.87551705     0.27000
C1207       C  0.43453352  0.64467960  0.87183549     0.35600
C1208       C  0.43613388  0.59626367  0.87166281     0.35600
C1209       C  0.06182789  0.64954573  0.87163067     0.35600
C1210       C  0.06249325  0.60109953  0.86964686     0.35600
C1211       C  0.48041758  0.71290031  0.88684569    -0.21900
C1212       C  0.01306136  0.71563376  0.88743951    -0.21900
C1213       C  0.48643796  0.53073757  0.88522101    -0.21900
C1214       C  0.01556103  0.53298106  0.88274283    -0.21900
C1215       C  0.40629357  0.63492492  0.86537309    -0.22900
C1216       C  0.40730044  0.60419006  0.86527433    -0.22900
C1217       C  0.09077309  0.64145710  0.86565193    -0.22900
C1218       C  0.09118475  0.61074354  0.86437920    -0.22900
C1219       C  0.44261386  0.67492138  0.87531077    -0.18300
C1220       C  0.05226483  0.67924524  0.87581087    -0.18300
C1221       C  0.05381013  0.57077187  0.87182235    -0.18300
C1222       C  0.44607465  0.56659267  0.87510896    -0.18300
H1223       H  0.46570489  0.73112509  0.89175564     0.14600
H1224       H  0.02707159  0.73446405  0.89227418     0.14600
H1225       H  0.47301329  0.51159978  0.89034644     0.14600
H1226       H  0.03005828  0.51428804  0.88691363     0.14600
H1227       H  0.38694165  0.64852363  0.86130163     0.12900
H1228       H  0.38887161  0.58937140  0.86109530     0.12900
H1229       H  0.10970172  0.65612649  0.86270114     0.12900
H1230       H  0.11048753  0.59707364  0.86030116     0.12900
H1231       H  0.49774654  0.64791848  0.86561079     0.26200
H1232       H  0.49917526  0.59708868  0.86436105     0.26200
C1233       C  0.13463997  0.71174881  0.19194319    -0.26300
C1234       C  0.11020792  0.69404936  0.19900898    -0.14400
C1235       C  0.08212049  0.69887551  0.18832358     0.36300
C1236       C  0.07916837  0.72068272  0.17062047    -0.25700
C1237       C  0.10378461  0.73779730  0.16325090    -0.15000
C1238       C  0.13168177  0.73372270  0.17438235     0.37400
N1239       N  0.15685955  0.75202150  0.16787300    -0.89200
H1240       H  0.15619001  0.70858391  0.20026535     0.18500
H1241       H  0.05770155  0.72362017  0.16209364     0.18500
N1242       N  0.05673927  0.68108273  0.19477423    -0.88300
H1243       H  0.17575158  0.74612349  0.17765740     0.35800
H1244       H  0.15174816  0.77420321  0.17230604     0.40900
H1245       H  0.04907398  0.67000417  0.17971279     0.40600
H1246       H  0.03986286  0.69556228  0.20050062     0.35400
C1247       C  0.07977610  0.53934637  0.16904008    -0.26300
C1248       C  0.10337518  0.51996968  0.16337270    -0.14400
C1249       C  0.13030275  0.52163075  0.17618411     0.36300
C1250       C  0.13361775  0.54356934  0.19372226    -0.25700
C1251       C  0.11038293  0.56359860  0.19905499    -0.15000
C1252       C  0.08301105  0.56132174  0.18666425     0.37400
N1253       N  0.05896125  0.58181984  0.19145906    -0.89200
H1254       H  0.05914026  0.53796483  0.15911439     0.18500
H1255       H  0.15443609  0.54489848  0.20340470     0.18500
N1256       N  0.15413281  0.50090431  0.17133979    -0.88300
H1257       H  0.04037691  0.57684372  0.18100462     0.35800
H1258       H  0.06609177  0.60328107  0.18653571     0.40900
H1259       H  0.14644411  0.47938860  0.17553100     0.40600
H1260       H  0.17244420  0.50510238  0.18228629     0.35400
C1261       C  0.14152512  0.70407986  0.34196676    -0.26300
C1262       C  0.14549306  0.73468798  0.33687713    -0.14400
C1263       C  0.14585712  0.74426600  0.31312298     0.36300
C1264       C  0.14294973  0.72286700  0.29502418    -0.25700
C1265       C  0.13875581  0.69244864  0.30033841    -0.15000
C1266       C  0.13795658  0.68291457  0.32392589     0.37400
N1267       N  0.13338347  0.65172555  0.32939761    -0.89200
H1268       H  0.14131985  0.69663741  0.36013244     0.18500
H1269       H  0.14309240  0.72997259  0.27677324     0.18500
N1270       N  0.14830421  0.77563962  0.30751111    -0.88300
H1271       H  0.13305623  0.64841240  0.34762005     0.35800
H1272       H  0.15175662  0.63979780  0.32294883     0.40900
H1273       H  0.12930200  0.78634878  0.31414481     0.40600
H1274       H  0.14808429  0.77885890  0.28927684     0.35400
C1275       C  0.17294763  0.53649940  0.32766720    -0.26300
C1276       C  0.14838538  0.51998799  0.33597864    -0.14400
C1277       C  0.12007503  0.52459766  0.32564390     0.36300
C1278       C  0.11658743  0.54661716  0.30815866    -0.25700
C1279       C  0.14087478  0.56386553  0.30019449    -0.15000
C1280       C  0.16955131  0.55847570  0.30997332     0.37400
N1281       N  0.19500936  0.57564984  0.30238072    -0.89200
H1282       H  0.19468760  0.53291740  0.33557944     0.18500
H1283       H  0.09467322  0.55008910  0.30053810     0.18500
N1284       N  0.09495420  0.50665017  0.33283684    -0.88300
H1285       H  0.21441543  0.56832347  0.31086293     0.35800
H1286       H  0.19161953  0.59784455  0.30771356     0.40900
H1287       H  0.09955116  0.48440860  0.32823815     0.40600
H1288       H  0.07571256  0.51282694  0.32359853     0.35400
C1289       C  0.33633370  0.95767949  0.08124345    -0.26300
C1290       C  0.35568765  0.98171588  0.08584138    -0.14400
C1291       C  0.35003458  0.51327233  0.07406647     0.36300
C1292       C  0.32763436  0.51503202  0.05682941    -0.25700
C1293       C  0.31157754  0.98679233  0.05072958    -0.15000
C1294       C  0.31410231  0.95996156  0.06387523     0.37400
N1295       N  0.29365210  0.93553458  0.06006774    -0.89200
H1296       H  0.33800493  0.93745570  0.09177096     0.18500
H1297       H  0.32196292  0.53677447  0.04956445     0.18500
N1298       N  0.36564525  0.53992137  0.08135640    -0.88300
H1299       H  0.27236363  0.94287913  0.06500109     0.35800
H1300       H  0.29883219  0.91742495  0.07104368     0.40900
H1301       H  0.38802886  0.53748530  0.07643927     0.40600
H1302       H  0.35754901  0.55876707  0.07243905     0.35400
C1303       C  0.16504117  0.01241766  0.05709680    -0.26300
C1304       C  0.18106826  0.98706095  0.04954031    -0.14400
C1305       C  0.17803975  0.45952971  0.06085438     0.36300
C1306       C  0.15690413  0.45790176  0.07918089    -0.25700
C1307       C  0.13823605  0.98275437  0.08619003    -0.15000
C1308       C  0.14377243  0.01049180  0.07512741     0.37400
N1309       N  0.12756549  0.03679257  0.08198122    -0.89200
H1310       H  0.16904740  0.03408745  0.04902044     0.18500
H1311       H  0.15400798  0.43707236  0.08877701     0.18500
N1312       N  0.19573063  0.43362225  0.05511553    -0.88300
H1313       H  0.11638081  0.04504820  0.06717914     0.35800
H1314       H  0.14299645  0.05302053  0.08738609     0.40900
H1315       H  0.18866602  0.42596335  0.03863774     0.40600
H1316       H  0.19143090  0.41612141  0.06691446     0.35400
C1317       C  0.34076987  0.54184322  0.91970854    -0.26300
C1318       C  0.35940597  0.51734257  0.91499761    -0.14400
C1319       C  0.35523481  0.99042624  0.92794029     0.36300
C1320       C  0.33309810  0.98808374  0.94531297    -0.25700
C1321       C  0.31375949  0.51251563  0.94903646    -0.15000
C1322       C  0.31801057  0.53977873  0.93651833     0.37400
N1323       N  0.29901682  0.56531984  0.93970360    -0.89200
H1324       H  0.34333363  0.56242141  0.90971500     0.18500
H1325       H  0.33056546  0.96698473  0.95460323     0.18500
N1326       N  0.37435063  0.96537697  0.92318472    -0.88300
H1327       H  0.30137860  0.57317914  0.95692762     0.35800
H1328       H  0.27686453  0.55880211  0.93683150     0.40900
H1329       H  0.36093816  0.94718911  0.91831047     0.40600
H1330       H  0.38540168  0.95971610  0.93878037     0.35400
C1331       C  0.18207508  0.53833936  0.93478229    -0.26300
C1332       C  0.18288043  0.51109414  0.94725101    -0.14400
C1333       C  0.16111050  0.99207516  0.94484996     0.36300
C1334       C  0.14022315  0.99687178  0.92689091    -0.25700
C1335       C  0.14036627  0.52046728  0.91129069    -0.15000
C1336       C  0.16133486  0.54312176  0.91676088     0.37400
N1337       N  0.16306536  0.57052107  0.90360223    -0.89200
H1338       H  0.19826718  0.55577524  0.93859825     0.18500
H1339       H  0.12282004  0.98036695  0.92390796     0.18500
N1340       N  0.15870839  0.96590701  0.95938711    -0.88300
H1341       H  0.14306193  0.58228415  0.90560149     0.35800
H1342       H  0.16587359  0.56524094  0.88580424     0.38500
H1343       H  0.15980546  0.94701691  0.94850825     0.40600
H1344       H  0.13770622  0.96612750  0.96745634     0.35400
C1345       C  0.41386100  0.69653438  0.18967662    -0.26300
C1346       C  0.38565558  0.69273785  0.20022845    -0.14400
C1347       C  0.36169295  0.71125144  0.19273032     0.36300
C1348       C  0.36648618  0.73267562  0.17518966    -0.25700
C1349       C  0.39442385  0.73587004  0.16428734    -0.15000
C1350       C  0.41838912  0.71747214  0.17165934     0.37400
N1351       N  0.44701912  0.71823461  0.16035112    -0.89200
H1352       H  0.43241677  0.68240277  0.19489003     0.18500
H1353       H  0.34791756  0.74656841  0.16958962     0.18500
N1354       N  0.33223767  0.70907133  0.20247472    -0.88300
H1355       H  0.45687460  0.73915461  0.16314575     0.35800
H1356       H  0.44401660  0.71501539  0.14227323     0.40900
H1357       H  0.33353958  0.71168162  0.22073659     0.40600
H1358       H  0.32329375  0.68803656  0.19841555     0.35400
C1359       C  0.36497513  0.54249457  0.19346524    -0.26300
C1360       C  0.38812598  0.56284186  0.19841270    -0.14400
C1361       C  0.41473504  0.56143789  0.18504580     0.36300
C1362       C  0.41774486  0.53975419  0.16724395    -0.25700
C1363       C  0.39440110  0.51977543  0.16218587    -0.15000
C1364       C  0.36790864  0.52107811  0.17552732     0.37400
N1365       N  0.34399881  0.50049195  0.17097412    -0.89200
H1366       H  0.34446167  0.54312706  0.20359871     0.18500
H1367       H  0.43800444  0.53919367  0.15678810     0.18500
N1368       N  0.43824173  0.58275138  0.18876792    -0.88300
H1369       H  0.32491249  0.51294708  0.16685083     0.35800
H1370       H  0.33970831  0.48852673  0.18644951     0.40900
H1371       H  0.44176248  0.59436467  0.17300582     0.40600
H1372       H  0.45776581  0.57092310  0.19274922     0.35400
C1373       C  0.38583421  0.71050476  0.30688453    -0.26300
C1374       C  0.36284836  0.68985297  0.30228433    -0.14400
C1375       C  0.33634723  0.69097632  0.31586808     0.36300
C1376       C  0.33348815  0.71279687  0.33363670    -0.25700
C1377       C  0.35671096  0.73304321  0.33835871    -0.15000
C1378       C  0.38301777  0.73202571  0.32463423     0.37400
N1379       N  0.40688518  0.75308192  0.32790463    -0.89200
H1380       H  0.40611779  0.71011237  0.29645591     0.18500
H1381       H  0.31339698  0.71355130  0.34428253     0.18500
N1382       N  0.31281428  0.66953535  0.31204464    -0.88300
H1383       H  0.41572266  0.75043846  0.34478211     0.35800
H1384       H  0.39819546  0.77477109  0.32639200     0.40900
H1385       H  0.29486170  0.67364867  0.32337762     0.40600
H1386       H  0.32113860  0.64835284  0.31648603     0.35400
C1387       C  0.38025201  0.51534163  0.32066312    -0.26300
C1388       C  0.35623801  0.51811133  0.33631147    -0.14400
C1389       C  0.33590876  0.54204117  0.33373858     0.36300
C1390       C  0.34012644  0.56290512  0.31564829    -0.25700
C1391       C  0.36463185  0.56065035  0.30027094    -0.15000
C1392       C  0.38469749  0.53631867  0.30271116     0.37400
N1393       N  0.40930736  0.53190319  0.28695601    -0.89200
H1394       H  0.39585422  0.49690930  0.32261505     0.18500
H1395       H  0.32461831  0.58146505  0.31399395     0.18500
N1396       N  0.31141398  0.54611235  0.34967328    -0.88300
H1397       H  0.42417042  0.54984701  0.28868611     0.35800
H1398       H  0.40114381  0.53138634  0.26971234     0.40900
H1399       H  0.31995775  0.54796623  0.36674423     0.40600
H1400       H  0.29778206  0.52708057  0.34892882     0.35400
C1401       C  0.15516429  0.79731253  0.07706787    -0.26300
C1402       C  0.13766278  0.77288671  0.08435687    -0.14400
C1403       C  0.14122183  0.74492087  0.07319956     0.36300
C1404       C  0.16298452  0.74139927  0.05573679    -0.25700
C1405       C  0.18141921  0.76541951  0.04896413    -0.15000
C1406       C  0.17707991  0.79381708  0.05955161     0.37400
N1407       N  0.19550148  0.81887834  0.05326684    -0.89200
H1408       H  0.15257251  0.81890737  0.08560413     0.18500
H1409       H  0.16550765  0.71959588  0.04753168     0.18500
N1410       N  0.12262295  0.72000856  0.07954433    -0.88300
H1411       H  0.20646507  0.82633267  0.06843351     0.35800
H1412       H  0.18159108  0.83616344  0.04737953     0.40900
H1413       H  0.13643170  0.70251994  0.08520617     0.40600
H1414       H  0.11133533  0.71281902  0.06445041     0.35400
C1415       C  0.31747261  0.78825669  0.06030011    -0.26300
C1416       C  0.31201561  0.75935758  0.05126782    -0.14400
C1417       C  0.32911416  0.73496283  0.06005456     0.36300
C1418       C  0.35097421  0.74008509  0.07713526    -0.25700
C1419       C  0.35608972  0.76886148  0.08627775    -0.15000
C1420       C  0.33901855  0.79311671  0.07783702     0.37400
N1421       N  0.34269867  0.82251197  0.08762643    -0.89200
H1422       H  0.30449109  0.80720782  0.05412556     0.18500
H1423       H  0.36399545  0.72124566  0.08348991     0.18500
N1424       N  0.32523469  0.70475958  0.05196750    -0.88300
H1425       H  0.32217650  0.82931322  0.09461577     0.35800
H1426       H  0.34827214  0.83720612  0.07395531     0.40900
H1427       H  0.32810473  0.70422469  0.03370599     0.40600
H1428       H  0.30374381  0.69746583  0.05634860     0.35400
C1429       C  0.16560240  0.76275685  0.94244384    -0.26300
C1430       C  0.18230391  0.73766796  0.94954354    -0.14400
C1431       C  0.17572530  0.70936701  0.93961143     0.36300
C1432       C  0.15354658  0.70694406  0.92232899    -0.25700
C1433       C  0.13736837  0.73214053  0.91486669    -0.15000
C1434       C  0.14272980  0.76028491  0.92572657     0.37400
N1435       N  0.12526960  0.78662503  0.92062281    -0.89200
H1436       H  0.16982308  0.78447980  0.95035560     0.18500
H1437       H  0.14952332  0.68530184  0.91420062     0.18500
N1438       N  0.19200778  0.68310900  0.94645984    -0.88300
H1439       H  0.11577161  0.79388472  0.93644894     0.35800
H1440       H  0.10717488  0.78170273  0.90972833     0.40900
H1441       H  0.20219103  0.67414192  0.93146220     0.40600
H1442       H  0.17672809  0.66730647  0.95283872     0.35400
C1443       C  0.33119824  0.75678065  0.94338612    -0.26300
C1444       C  0.31327056  0.73248015  0.95050009    -0.14400
C1445       C  0.31763360  0.70413871  0.93967322     0.36300
C1446       C  0.33874086  0.70132765  0.92138052    -0.25700
C1447       C  0.35587238  0.72596881  0.91394873    -0.15000
C1448       C  0.35248569  0.75368907  0.92547339     0.37400
N1449       N  0.37099332  0.77870873  0.91923848    -0.89200
H1450       H  0.32874793  0.77847654  0.95177731     0.18500
H1451       H  0.34152018  0.67992709  0.91259166     0.18500
N1452       N  0.30014294  0.67855517  0.94665248    -0.88300
H1453       H  0.38268465  0.78545972  0.93426768     0.35800
H1454       H  0.35710155  0.79638335  0.91408578     0.40900
H1455       H  0.30716407  0.67235305  0.96351781     0.40600
H1456       H  0.30468735  0.66017334  0.93579072     0.35400
C1457       C  0.41602014  0.01131317  0.44417569    -0.26300
C1458       C  0.43591674  0.98776156  0.44905990    -0.14400
C1459       C  0.43318348  0.96062734  0.43634796     0.36300
C1460       C  0.41165145  0.95808704  0.41845221    -0.25700
C1461       C  0.39255588  0.98207475  0.41307896    -0.15000
C1462       C  0.39424423  0.00862783  0.42663573     0.37400
N1463       N  0.37348285  0.03278948  0.42357504    -0.89200
H1464       H  0.41718653  0.03194854  0.45422872     0.18500
H1465       H  0.41026551  0.93748566  0.40836350     0.18500
N1466       N  0.45692402  0.43911497  0.43870996    -0.88300
H1467       H  0.35182082  0.02425038  0.42530173     0.35800
H1468       H  0.37592362  0.04176428  0.40671532     0.40900
H1469       H  0.46804679  0.43582135  0.42272669     0.40600
H1470       H  0.44524127  0.41943791  0.44272949     0.35400
C1471       C  0.41731557  0.99119202  0.55667043    -0.26300
C1472       C  0.43955519  0.51512308  0.55040334    -0.14400
C1473       C  0.43504567  0.54305951  0.56180467     0.36300
C1474       C  0.41303685  0.54552574  0.57952603    -0.25700
C1475       C  0.39586149  0.52061859  0.58640822    -0.15000
C1476       C  0.39662646  0.99439671  0.57504252     0.37400
N1477       N  0.37521929  0.97116099  0.57948922    -0.89200
H1478       H  0.41694675  0.97087713  0.54618820     0.18500
H1479       H  0.40990589  0.56671913  0.58854339     0.18500
N1480       N  0.45320964  0.56859135  0.55586151    -0.88300
H1481       H  0.38686713  0.95133603  0.58301961     0.35800
H1482       H  0.36272736  0.96790740  0.56414668     0.40900
H1483       H  0.47514632  0.56370623  0.56090777     0.40600
H1484       H  0.44671016  0.58739510  0.56560188     0.35400
C1485       C  0.08739151  0.98443977  0.55461587    -0.26300
C1486       C  0.06761346  0.51428319  0.54964962    -0.14400
C1487       C  0.06980639  0.54052342  0.56359629     0.36300
C1488       C  0.09142112  0.54196048  0.58158475    -0.25700
C1489       C  0.11092937  0.51793781  0.58580202    -0.15000
C1490       C  0.11009372  0.98714119  0.57144120     0.37400
N1491       N  0.13110108  0.96305467  0.57373062    -0.89200
H1492       H  0.08595917  0.96400167  0.54433715     0.18500
H1493       H  0.09277639  0.56172223  0.59265586     0.18500
N1494       N  0.04940536  0.56505007  0.56020555    -0.88300
H1495       H  0.12957772  0.95397109  0.59062322     0.35800
H1496       H  0.15261683  0.97170551  0.57134670     0.40900
H1497       H  0.05483418  0.57525950  0.54419619     0.40600
H1498       H  0.05257658  0.58145054  0.57313089     0.35400
C1499       C  0.08584116  0.51420881  0.44304985    -0.26300
C1500       C  0.06648698  0.98360766  0.44943953    -0.14400
C1501       C  0.07551190  0.95494311  0.44120472     0.36300
C1502       C  0.09644751  0.95291605  0.42272964    -0.25700
C1503       C  0.10914099  0.97870398  0.41260364    -0.15000
C1504       C  0.10863426  0.51199062  0.42611633     0.37400
N1505       N  0.12644413  0.53782143  0.42026699    -0.89200
H1506       H  0.08168955  0.53570006  0.45133563     0.18500
H1507       H  0.10259726  0.93104459  0.41595820     0.18500
N1508       N  0.06318737  0.92798582  0.45119982    -0.88300
H1509       H  0.11964617  0.55651549  0.43000767     0.35800
H1510       H  0.14845295  0.53322118  0.42526904     0.40900
H1511       H  0.07141873  0.92615396  0.46836494     0.40600
H1512       H  0.07091415  0.90905007  0.44219771     0.35400
C1513       C  0.08296062  0.73981908  0.44321504    -0.26300
C1514       C  0.06715672  0.76495282  0.45147246    -0.14400
C1515       C  0.07440698  0.79367029  0.44225723     0.36300
C1516       C  0.09597399  0.79610993  0.42425034    -0.25700
C1517       C  0.11085400  0.77070918  0.41555686    -0.15000
C1518       C  0.10477916  0.74248118  0.42566804     0.37400
N1519       N  0.12103691  0.71640761  0.41835304    -0.89200
H1520       H  0.07845744  0.71775599  0.45042604     0.18500
H1521       H  0.10077629  0.81787994  0.41662105     0.18500
N1522       N  0.05948083  0.82015737  0.45063729    -0.88300
H1523       H  0.10569316  0.70053995  0.41219169     0.35800
H1524       H  0.13172868  0.70738996  0.43310903     0.40900
H1525       H  0.06682313  0.82400216  0.46784654     0.40600
H1526       H  0.06602338  0.83897322  0.44090137     0.35400
C1527       C  0.06735501  0.70813250  0.56334418    -0.26300
C1528       C  0.06677535  0.73566876  0.55128381    -0.14400
C1529       C  0.08771835  0.75811904  0.55727147     0.36300
C1530       C  0.10792780  0.75294830  0.57571487    -0.25700
C1531       C  0.10793104  0.72581072  0.58825392    -0.15000
C1532       C  0.08728648  0.70301236  0.58198676     0.37400
N1533       N  0.08509602  0.67494577  0.59443264    -0.89200
H1534       H  0.05132682  0.69078595  0.55890116     0.18500
H1535       H  0.12387769  0.77026449  0.58041005     0.18500
N1536       N  0.08861556  0.78597578  0.54449749    -0.88300
H1537       H  0.06359788  0.67360439  0.60157806     0.35800
H1538       H  0.09967696  0.67397752  0.60870957     0.40900
H1539       H  0.09482968  0.78107546  0.52717138     0.40600
H1540       H  0.10514933  0.80013477  0.55127768     0.35400
C1541       C  0.40886778  0.73091254  0.54518666    -0.26300
C1542       C  0.43873858  0.73580246  0.55144669    -0.14400
C1543       C  0.44703190  0.73605948  0.57533171     0.36300
C1544       C  0.42498803  0.73204632  0.59268805    -0.25700
C1545       C  0.39476262  0.72803583  0.58659423    -0.15000
C1546       C  0.38664710  0.72747018  0.56252928     0.37400
N1547       N  0.35581943  0.72452558  0.55579807    -0.89200
H1548       H  0.40275687  0.73081250  0.52672326     0.18500
H1549       H  0.43136428  0.73228325  0.61108991     0.18500
N1550       N  0.47776385  0.74068333  0.58180419    -0.88300
H1551       H  0.35368623  0.72454196  0.53746781     0.35800
H1552       H  0.34451147  0.74351439  0.56190933     0.40900
H1553       H  0.49007853  0.72249656  0.57539856     0.40600
H1554       H  0.48014412  0.74048124  0.60011547     0.35400
C1555       C  0.41787639  0.73945854  0.44537570    -0.26300
C1556       C  0.43626011  0.76396787  0.45107655    -0.14400
C1557       C  0.43125304  0.79192552  0.43989136     0.36300
C1558       C  0.40859290  0.79437333  0.42284545    -0.25700
C1559       C  0.39104521  0.76952008  0.41663363    -0.15000
C1560       C  0.39524029  0.74208813  0.42848191     0.37400
N1561       N  0.37625705  0.71694312  0.42359648    -0.89200
H1562       H  0.42092214  0.71810171  0.45418784     0.18500
H1563       H  0.40537523  0.81546636  0.41368750     0.18500
N1564       N  0.44964416  0.81748167  0.44530804    -0.88300
H1565       H  0.36574175  0.71064143  0.43928110     0.35800
H1566       H  0.38970886  0.69909015  0.41811107     0.40900
H1567       H  0.47132018  0.81268710  0.43955618     0.40600
H1568       H  0.44260673  0.83634554  0.43586628     0.35400
C1569       C  0.11846474  0.76455930  0.67780456    -0.26300
C1570       C  0.14528348  0.76374394  0.66508658    -0.14400
C1571       C  0.16788787  0.78494578  0.67016847     0.36300
C1572       C  0.16314941  0.80639126  0.68778058    -0.25700
C1573       C  0.13600303  0.80766459  0.70019543    -0.15000
C1574       C  0.11349516  0.78620741  0.69513607     0.37400
N1575       N  0.08559031  0.78535635  0.70749887    -0.89200
H1576       H  0.10100797  0.74839229  0.67398098     0.18500
H1577       H  0.18052288  0.82275088  0.69129403     0.18500
N1578       N  0.19521900  0.78614540  0.65704713    -0.88300
H1579       H  0.07362689  0.80491527  0.70381129     0.35800
H1580       H  0.08986982  0.78411233  0.72556966     0.40900
H1581       H  0.19003668  0.78834807  0.63918257     0.40600
H1582       H  0.20686750  0.76610382  0.65951485     0.35400
C1583       C  0.13381862  0.78967825  0.80574578    -0.26300
C1584       C  0.10913204  0.80735748  0.79920789    -0.14400
C1585       C  0.08110200  0.80176641  0.81006154     0.36300
C1586       C  0.07890213  0.77999569  0.82770098    -0.25700
C1587       C  0.10392578  0.76343189  0.83482930    -0.15000
C1588       C  0.13139769  0.76775658  0.82329455     0.37400
N1589       N  0.15682017  0.74976026  0.82924142    -0.89200
H1590       H  0.15528873  0.79292203  0.79728277     0.18500
H1591       H  0.05762970  0.77668327  0.83646876     0.18500
N1592       N  0.05469935  0.81834377  0.80427848    -0.88300
H1593       H  0.17403861  0.76410402  0.83456930     0.35800
H1594       H  0.16384977  0.73858800  0.81403449     0.40900
H1595       H  0.04939247  0.81451299  0.78661987     0.40600
H1596       H  0.05883840  0.84118868  0.80692041     0.35400
C1597       C  0.13641744  0.95652380  0.80708612    -0.26300
C1598       C  0.11135048  0.93985775  0.79991070    -0.14400
C1599       C  0.08317371  0.94618678  0.81021466     0.36300
C1600       C  0.08115584  0.96812386  0.82794275    -0.25700
C1601       C  0.10640059  0.98425112  0.83528929    -0.15000
C1602       C  0.13412226  0.97874801  0.82439586     0.37400
N1603       N  0.15994212  0.99607170  0.83057831    -0.89200
H1604       H  0.15803560  0.95249895  0.79909077     0.18500
H1605       H  0.05982161  0.97238028  0.83633223     0.18500
N1606       N  0.05686310  0.92991532  0.80324875    -0.88300
H1607       H  0.17652200  0.98131988  0.83641540     0.35800
H1608       H  0.16777956  0.00672045  0.81537403     0.40900
H1609       H  0.05127395  0.93700955  0.78626849     0.40600
H1610       H  0.03869154  0.93567283  0.81390562     0.35400
C1611       C  0.13983527  0.96729025  0.70375604    -0.26300
C1612       C  0.14035576  0.93646880  0.69896594    -0.14400
C1613       C  0.14630607  0.92620467  0.67602851     0.36300
C1614       C  0.15097612  0.94718299  0.65796778    -0.25700
C1615       C  0.15002495  0.97813465  0.66254327    -0.15000
C1616       C  0.14450677  0.98835417  0.68566580     0.37400
N1617       N  0.09412570  0.49631592  0.67044033    -0.89200
H1618       H  0.13525078  0.97486526  0.72152375     0.18500
H1619       H  0.15512302  0.93943511  0.64017836     0.18500
N1620       N  0.14692102  0.89453483  0.67114719    -0.88300
H1621       H  0.08798695  0.50752716  0.68586729     0.35800
H1622       H  0.07621024  0.48273442  0.66531069     0.40900
H1623       H  0.16485473  0.88528392  0.68044200     0.40600
H1624       H  0.15119093  0.89070799  0.65330038     0.35400
C1625       C  0.41687360  0.77280433  0.82454618    -0.26300
C1626       C  0.39108575  0.75985454  0.83439064    -0.14400
C1627       C  0.36299772  0.76735074  0.82479768     0.36300
C1628       C  0.36095994  0.78933187  0.80720657    -0.25700
C1629       C  0.38658431  0.80356224  0.79819890    -0.15000
C1630       C  0.41492748  0.79416514  0.80639888     0.37400
N1631       N  0.44184108  0.80646709  0.79671651    -0.89200
H1632       H  0.43871820  0.76694599  0.83135923     0.18500
H1633       H  0.33902958  0.79523741  0.80059723     0.18500
N1634       N  0.33645565  0.75228783  0.83253835    -0.88300
H1635       H  0.45454571  0.78878452  0.78992754     0.35800
H1636       H  0.45398812  0.81637525  0.81038351     0.40900
H1637       H  0.32665244  0.74191692  0.81794626     0.40600
H1638       H  0.32154286  0.76844444  0.83885690     0.35400
C1639       C  0.33610161  0.81157608  0.68373267    -0.26300
C1640       C  0.36152395  0.81010872  0.69821323    -0.14400
C1641       C  0.38257505  0.78706200  0.69459822     0.36300
C1642       C  0.37834490  0.76641102  0.67634138    -0.25700
C1643       C  0.35331172  0.76816838  0.66161597    -0.15000
C1644       C  0.33191629  0.79097465  0.66537670     0.37400
N1645       N  0.30644004  0.79435942  0.65033894    -0.89200
H1646       H  0.31983700  0.82928932  0.68629092     0.18500
H1647       H  0.39476181  0.74887475  0.67360704     0.18500
N1648       N  0.40800139  0.78417378  0.70974567    -0.88300
H1649       H  0.29351063  0.77487287  0.65135225     0.35800
H1650       H  0.31396023  0.79682906  0.63301506     0.40900
H1651       H  0.42726043  0.78530991  0.69935679     0.40600
H1652       H  0.40724572  0.76294732  0.71757878     0.35400
C1653       C  0.38784346  0.96026756  0.69743786    -0.26300
C1654       C  0.36370436  0.94096576  0.70210443    -0.14400
C1655       C  0.33667383  0.94475369  0.68952321     0.36300
C1656       C  0.33479617  0.96713414  0.67213779    -0.25700
C1657       C  0.35935491  0.98552724  0.66692107    -0.15000
C1658       C  0.38584288  0.98268780  0.68013378     0.37400
N1659       N  0.41053820  0.00264551  0.67591899    -0.89200
H1660       H  0.40838241  0.95787106  0.70735847     0.18500
H1661       H  0.31444554  0.96952322  0.66196731     0.18500
N1662       N  0.31159253  0.92530776  0.69381178    -0.88300
H1663       H  0.42835745  0.99761435  0.68714565     0.35800
H1664       H  0.40814480  0.51717530  0.67387911     0.40900
H1665       H  0.31771211  0.90368587  0.68853760     0.40600
H1666       H  0.29338426  0.93147118  0.68334341     0.35400
C1667       C  0.36369788  0.95271875  0.80968393    -0.26300
C1668       C  0.38878012  0.93641330  0.80207520    -0.14400
C1669       C  0.41714487  0.94325242  0.81179647     0.36300
C1670       C  0.41946037  0.96559139  0.82921831    -0.25700
C1671       C  0.39415378  0.98109354  0.83723670    -0.15000
C1672       C  0.36610973  0.97513600  0.82689888     0.37400
N1673       N  0.34020200  0.99208050  0.83379275    -0.89200
H1674       H  0.34200912  0.94821832  0.80198331     0.18500
H1675       H  0.44098814  0.97026009  0.83715284     0.18500
N1676       N  0.44339644  0.92724088  0.80438842    -0.88300
H1677       H  0.32128842  0.98488169  0.82457624     0.35800
H1678       H  0.34387600  0.01441893  0.82894217     0.40900
H1679       H  0.44105604  0.90499406  0.80995948     0.40600
H1680       H  0.46243736  0.93565581  0.81277934     0.35400
O1681       O  0.85667243  0.40515034  0.77927452    -0.72900
O1682       O  0.84279272  0.34308198  0.72893420    -0.73900
O1683       O  0.85526665  0.34140085  0.77798209    -0.62500
O1684       O  0.84417907  0.40697139  0.73022600    -0.70900
O1685       O  0.89274181  0.40603189  0.72278822    -0.70500
O1686       O  0.90400969  0.34117046  0.77100289    -0.61700
O1687       O  0.89149393  0.34213374  0.72203246    -0.74200
O1688       O  0.90526901  0.40454684  0.77178620    -0.73000
Cu1689     Cu  0.84802478  0.37419989  0.75437031     1.04600
Cu1690     Cu  0.90002627  0.37346261  0.74659557     1.04300
C1691       C  0.88313783  0.41449916  0.78362947     0.93300
C1692       C  0.86516043  0.33248615  0.71766296     0.92400
C1693       C  0.88137453  0.33106672  0.78218962     0.84600
C1694       C  0.86676413  0.41685648  0.71883524     0.90800
O1695       O  0.64089738  0.34138629  0.77872721    -0.72900
O1696       O  0.65577477  0.40339240  0.72890936    -0.73900
O1697       O  0.64243899  0.40511103  0.77761699    -0.62500
O1698       O  0.65405768  0.33965384  0.73013273    -0.70900
O1699       O  0.60550714  0.34065896  0.72245245    -0.70500
O1700       O  0.59403924  0.40582877  0.76976182    -0.61700
O1701       O  0.60735943  0.40443568  0.72117175    -0.74200
O1702       O  0.59245420  0.34243981  0.77086541    -0.73000
Cu1703     Cu  0.64999799  0.37237418  0.75412268     1.04600
Cu1704     Cu  0.59819643  0.37340280  0.74574079     1.04300
C1705       C  0.61436381  0.33196440  0.78264659     0.93300
C1706       C  0.63383165  0.41406378  0.71724593     0.92400
C1707       C  0.61636054  0.41585342  0.78130199     0.84600
C1708       C  0.63137084  0.32942900  0.71908530     0.90800
O1709       O  0.96708004  0.21874198  0.52024051    -0.72900
O1710       O  0.53331445  0.23076727  0.47362214    -0.73900
O1711       O  0.53247734  0.21751104  0.52269057    -0.62500
O1712       O  0.97126676  0.23238810  0.47133218    -0.70900
O1713       O  0.96850025  0.28078811  0.48048607    -0.70500
O1714       O  0.53327940  0.26632955  0.53015866    -0.61700
O1715       O  0.53313195  0.27947253  0.48129724    -0.74200
O1716       O  0.96743014  0.26721369  0.52938360    -0.73000
Cu1717     Cu  0.00084018  0.22428938  0.49700530     1.04600
Cu1718     Cu  0.99966487  0.27633480  0.50575534     1.04300
C1719       C  0.95703409  0.24076850  0.53227705     0.93300
C1720       C  0.54324043  0.25722921  0.46963404     0.92400
C1721       C  0.54271453  0.23979838  0.53434227     0.84600
C1722       C  0.96048637  0.25851391  0.46782009     0.90800
C1723       C  0.84856599  0.24550940  0.64272126     0.03200
C1724       C  0.82735811  0.22229232  0.64283780    -0.13000
C1725       C  0.82531442  0.20229102  0.62380202     0.00700
C1726       C  0.84523146  0.20507739  0.60476911    -0.11500
C1727       C  0.86707864  0.22776564  0.60468153     0.03100
C1728       C  0.86844764  0.24790634  0.62367248    -0.10900
H1729       H  0.81277079  0.21931541  0.65787520     0.08700
H1730       H  0.84405736  0.18925774  0.59031351     0.06300
H1731       H  0.88514562  0.26554929  0.62364908     0.06100
C1732       C  0.62603385  0.22049691  0.61069299     0.03200
C1733       C  0.64899585  0.19912270  0.60972961    -0.13000
C1734       C  0.66979558  0.19700758  0.62814688     0.00700
C1735       C  0.66759426  0.21628119  0.64754535    -0.11500
C1736       C  0.64510744  0.23806648  0.64834364     0.03100
C1737       C  0.62426991  0.23991887  0.63001475    -0.10900
H1738       H  0.65087468  0.18441029  0.59461012     0.08700
H1739       H  0.68344319  0.21436686  0.66188829     0.06300
H1740       H  0.60691950  0.25687809  0.63059487     0.06100
O1741       O  0.97044656  0.48395982  0.52772806    -0.72900
O1742       O  0.53389456  0.46953092  0.47750228    -0.73900
O1743       O  0.53554549  0.48278444  0.52612314    -0.62500
O1744       O  0.97055960  0.47048744  0.47868190    -0.70900
O1745       O  0.97006898  0.01606589  0.47223712    -0.70500
O1746       O  0.53288424  0.03177071  0.52037984    -0.61700
O1747       O  0.53316547  0.01895689  0.47137602    -0.74200
O1748       O  0.97009564  0.02791026  0.52123725    -0.73000
Cu1749     Cu  0.00222980  0.47562996  0.50345228     1.04600
Cu1750     Cu  0.00181095  0.02286646  0.49653015     1.04300
C1751       C  0.95945975  0.00560794  0.53263803     0.93300
C1752       C  0.54434285  0.49152249  0.46567126     0.92400
C1753       C  0.54266970  0.00918344  0.53188469     0.84600
C1754       C  0.95991596  0.49275137  0.46726930     0.90800
C1755       C  0.63030494  0.01881233  0.60617420     0.03200
C1756       C  0.65306289  0.04043994  0.60612669    -0.13000
C1757       C  0.67347339  0.04194176  0.62484690     0.00700
C1758       C  0.67099208  0.02180648  0.64371971    -0.11500
C1759       C  0.64796238  0.00046190  0.64407297     0.03100
C1760       C  0.63154584  0.49899109  0.62208097    -0.10900
H1761       H  0.65503109  0.05596575  0.59151128     0.08700
H1762       H  0.68692057  0.02282458  0.65806766     0.06300
H1763       H  0.61502349  0.48132508  0.62096894     0.06100
C1764       C  0.87116283  0.02071471  0.60662965     0.03200
C1765       C  0.84893705  0.04292990  0.60629249    -0.13000
C1766       C  0.82905682  0.04588924  0.62527133     0.00700
C1767       C  0.83161292  0.02675929  0.64478034    -0.11500
C1768       C  0.85416001  0.00495542  0.64558295     0.03100
C1769       C  0.87702080  0.50506125  0.62650747    -0.10900
H1770       H  0.84667289  0.05747220  0.59109894     0.08700
H1771       H  0.81609796  0.02894758  0.65933793     0.06300
H1772       H  0.89456333  0.48830885  0.62663552     0.06100
O1773       O  0.71709478  0.26832885  0.97216338    -0.72900
O1774       O  0.78207420  0.28056606  0.01982585    -0.73900
O1775       O  0.78061069  0.26604030  0.97142445    -0.62500
O1776       O  0.71848992  0.28254596  0.02088931    -0.70900
O1777       O  0.71770440  0.23404645  0.02929676    -0.70500
O1778       O  0.77912522  0.21746924  0.97967876    -0.61700
O1779       O  0.78125895  0.23195245  0.02798919    -0.74200
O1780       O  0.71586974  0.21981038  0.98063447    -0.73000
Cu1781     Cu  0.74959892  0.27606064  0.99576993     1.04600
Cu1782     Cu  0.74839547  0.22416542  0.00474404     1.04300
C1783       C  0.70627168  0.24213898  0.96871863     0.93300
C1784       C  0.79234123  0.25806467  0.03116102     0.92400
C1785       C  0.78980166  0.23926302  0.96775676     0.84600
C1786       C  0.70817101  0.26068246  0.03299044     0.90800
C1787       C  0.89275204  0.24035680  0.85438465     0.03200
C1788       C  0.91503498  0.21830030  0.85445692    -0.13000
C1789       C  0.91734451  0.19821234  0.87338276     0.00700
C1790       C  0.89763095  0.20052833  0.89249653    -0.11500
C1791       C  0.87586512  0.22313611  0.89290393     0.03100
C1792       C  0.87337313  0.24275227  0.87366877    -0.10900
H1793       H  0.93041269  0.21660653  0.83976930     0.08700
H1794       H  0.89979774  0.18527023  0.90726382     0.06300
H1795       H  0.85626781  0.25996392  0.87364586     0.06100
C1796       C  0.60064344  0.24406003  0.85660126     0.03200
C1797       C  0.57849666  0.22181213  0.85697106    -0.13000
C1798       C  0.57604030  0.20236038  0.87629163     0.00700
C1799       C  0.59554311  0.20558566  0.89549845    -0.11500
C1800       C  0.61734481  0.22829366  0.89549441     0.03100
C1801       C  0.61990365  0.24721362  0.87587743    -0.10900
H1802       H  0.56345307  0.21935700  0.84214070     0.08700
H1803       H  0.59353051  0.19063506  0.91047058     0.06300
H1804       H  0.63699547  0.26446539  0.87556937     0.06100
O1805       O  0.90193229  0.15876813  0.22744979    -0.72900
O1806       O  0.89307855  0.09390016  0.27591500    -0.73900
O1807       O  0.90374185  0.09552468  0.22692863    -0.62500
O1808       O  0.89123469  0.15768958  0.27674950    -0.70900
O1809       O  0.84236475  0.15613826  0.27042056    -0.70500
O1810       O  0.85487757  0.09418772  0.22058032    -0.61700
O1811       O  0.84423350  0.09278053  0.26957875    -0.74200
O1812       O  0.85317607  0.15758437  0.22105349    -0.73000
Cu1813     Cu  0.89919449  0.12656119  0.25202124     1.04600
Cu1814     Cu  0.84696991  0.12517476  0.24518196     1.04300
C1815       C  0.87899494  0.16821954  0.21628866     0.93300
C1816       C  0.86730881  0.08289593  0.28030588     0.92400
C1817       C  0.88124358  0.08504811  0.21583066     0.84600
C1818       C  0.86479588  0.16655700  0.28163116     0.90800
O1819       O  0.77870016  0.01852121  0.02856805    -0.72900
O1820       O  0.71770128  0.03215940  0.97802964    -0.73900
O1821       O  0.71513172  0.01962180  0.02665615    -0.62500
O1822       O  0.78102758  0.03160782  0.98003215    -0.70900
O1823       O  0.77955602  0.48364696  0.97166195    -0.70500
O1824       O  0.71655448  0.47152347  0.02113131    -0.61700
O1825       O  0.71594484  0.48306951  0.97220400    -0.74200
O1826       O  0.77975374  0.47172861  0.02062046    -0.73000
Cu1827     Cu  0.74817298  0.02720808  0.00362208     1.04600
Cu1828     Cu  0.74794631  0.47578854  0.99612689     1.04300
C1829       C  0.78966822  0.49430339  0.03203488     0.93300
C1830       C  0.70752561  0.00947619  0.96684132     0.92400
C1831       C  0.70629415  0.49416941  0.03229918     0.84600
C1832       C  0.79139022  0.00919240  0.96872194     0.90800
C1833       C  0.60182805  0.00395980  0.85658302     0.03200
C1834       C  0.62198791  0.50208602  0.87548854    -0.13000
C1835       C  0.61849929  0.02258051  0.89463208     0.00700
C1836       C  0.59605109  0.04442072  0.89421113    -0.11500
C1837       C  0.57653712  0.04629094  0.87497653     0.03100
C1838       C  0.57945364  0.02604955  0.85620297    -0.10900
H1839       H  0.63816325  0.48410650  0.87693874     0.08700
H1840       H  0.59368740  0.05990661  0.90880074     0.06300
H1841       H  0.56453592  0.02776444  0.84123649     0.06100
C1842       C  0.88091049  0.01896565  0.89584203     0.03200
C1843       C  0.90319165  0.04108002  0.89495439    -0.13000
C1844       C  0.92254213  0.04276760  0.87555218     0.00700
C1845       C  0.91946166  0.02238267  0.85693686    -0.11500
C1846       C  0.89678119  0.00067652  0.85743171     0.03100
C1847       C  0.87866767  0.50011650  0.87729539    -0.10900
H1848       H  0.90555263  0.05692129  0.90931221     0.08700
H1849       H  0.93420989  0.02394047  0.84184233     0.06300
H1850       H  0.86180054  0.48264553  0.87785127     0.06100
O1851       O  0.65370283  0.09350277  0.26948283    -0.72900
O1852       O  0.63991369  0.15810491  0.22152879    -0.73900
O1853       O  0.65364027  0.15706639  0.27027893    -0.62500
O1854       O  0.63978000  0.09436023  0.22078770    -0.70900
O1855       O  0.59141532  0.09434158  0.22901780    -0.70500
O1856       O  0.60525336  0.15619695  0.27908191    -0.61700
O1857       O  0.59156096  0.15813041  0.22990253    -0.74200
O1858       O  0.60530300  0.09269655  0.27768423    -0.73000
Cu1859     Cu  0.64841485  0.12578221  0.24520358     1.04600
Cu1860     Cu  0.59667859  0.12538117  0.25419567     1.04300
C1861       C  0.63178037  0.08291423  0.28126577     0.93300
C1862       C  0.61361744  0.16833882  0.21799852     0.92400
C1863       C  0.63164085  0.16609140  0.28270036     0.84600
C1864       C  0.61340195  0.08440391  0.21700605     0.90800
C1865       C  0.59972640  0.49818161  0.14380270     0.03200
C1866       C  0.57794778  0.47553094  0.14354357    -0.13000
C1867       C  0.57632019  0.45543240  0.12456842     0.00700
C1868       C  0.59640996  0.45816471  0.10573416    -0.11500
C1869       C  0.61767126  0.48126858  0.10556783     0.03100
C1870       C  0.61715034  0.00117996  0.12230882    -0.10900
H1871       H  0.56258505  0.47322988  0.15819176     0.08700
H1872       H  0.59515711  0.44263583  0.09108268     0.06300
H1873       H  0.63428887  0.01836081  0.12243211     0.06100
C1874       C  0.89696114  0.49784481  0.14310716     0.03200
C1875       C  0.91917288  0.47576641  0.14258999    -0.13000
C1876       C  0.92109139  0.45598255  0.12347961     0.00700
C1877       C  0.90113063  0.45878629  0.10455447    -0.11500
C1878       C  0.87927864  0.48138234  0.10469287     0.03100
C1879       C  0.87420523  0.99786386  0.12413004    -0.10900
H1880       H  0.93458991  0.47359652  0.15720925     0.08700
H1881       H  0.90282395  0.44360033  0.08971474     0.06300
H1882       H  0.85682415  0.01480828  0.12408104     0.06100
C1883       C  0.88107436  0.27436767  0.10361041     0.03200
C1884       C  0.87887074  0.25327994  0.12183488    -0.13000
C1885       C  0.89697104  0.25554508  0.14187826     0.00700
C1886       C  0.91758091  0.27920605  0.14356713    -0.11500
C1887       C  0.92054175  0.29996099  0.12512220     0.03100
C1888       C  0.90206032  0.29764370  0.10524874    -0.10900
H1889       H  0.86263959  0.23526766  0.12057819     0.08700
H1890       H  0.93113284  0.28174966  0.15923403     0.06300
H1891       H  0.90426120  0.31370284  0.09101377     0.06100
C1892       C  0.61862420  0.27512055  0.10625266     0.03200
C1893       C  0.62102280  0.25618909  0.12592087    -0.13000
C1894       C  0.60068180  0.25803726  0.14464745     0.00700
C1895       C  0.57765643  0.27940896  0.14372220    -0.11500
C1896       C  0.57545937  0.29921230  0.12453516     0.03100
C1897       C  0.59598427  0.29697716  0.10584050    -0.10900
H1898       H  0.63878019  0.23970186  0.12662408     0.08700
H1899       H  0.56188427  0.28112765  0.15814015     0.06300
H1900       H  0.59408230  0.31204023  0.09093411     0.06100
C1901       C  0.64850597  0.49248160  0.35237506     0.03200
C1902       C  0.62894789  0.99721844  0.37409550    -0.13000
C1903       C  0.63220932  0.47619427  0.39136821     0.00700
C1904       C  0.65431063  0.45383843  0.39121473    -0.11500
C1905       C  0.67382898  0.45100955  0.37194015     0.03100
C1906       C  0.67103807  0.47056593  0.35265220    -0.10900
H1907       H  0.61110716  0.01363701  0.37363366     0.08700
H1908       H  0.65664077  0.43891645  0.40617251     0.06300
H1909       H  0.68606870  0.46839159  0.33778731     0.06100
C1910       C  0.85347825  0.49441508  0.35598539     0.03200
C1911       C  0.83230868  0.47120191  0.35549507    -0.13000
C1912       C  0.82990034  0.45106759  0.37441272     0.00700
C1913       C  0.84934265  0.45386821  0.39377012    -0.11500
C1914       C  0.87066130  0.47703387  0.39440410     0.03100
C1915       C  0.87372028  0.99944619  0.37404432    -0.10900
H1916       H  0.81786070  0.46853831  0.34033811     0.08700
H1917       H  0.84763251  0.43830650  0.40837537     0.06300
H1918       H  0.89097652  0.01651098  0.37335273     0.06100
C1919       C  0.87220012  0.27099705  0.39430361     0.03200
C1920       C  0.85011436  0.29344114  0.39420938    -0.13000
C1921       C  0.82894371  0.29481930  0.37599072     0.00700
C1922       C  0.83033838  0.27418856  0.35740818    -0.11500
C1923       C  0.85284518  0.25242278  0.35691593     0.03100
C1924       C  0.87323084  0.25050510  0.37553933    -0.10900
H1925       H  0.84948565  0.31009704  0.40808377     0.08700
H1926       H  0.81436463  0.27553340  0.34310273     0.06300
H1927       H  0.88991906  0.23289100  0.37536603     0.06100
C1928       C  0.63122529  0.27040830  0.39552539     0.03200
C1929       C  0.62918322  0.25022416  0.37668701    -0.13000
C1930       C  0.64935754  0.25148618  0.35782653     0.00700
C1931       C  0.67185470  0.27353986  0.35792669    -0.11500
C1932       C  0.67347146  0.29468852  0.37622674     0.03100
C1933       C  0.65305768  0.29306740  0.39499104    -0.10900
H1934       H  0.61143308  0.23365667  0.37658068     0.08700
H1935       H  0.68803704  0.27444377  0.34375381     0.06300
H1936       H  0.65455427  0.30906316  0.40931019     0.06100
N1937       N  0.99847516  0.42407107  0.12509923    -0.36600
N1938       N  0.95231527  0.37783145  0.12458125    -0.57100
N1939       N  0.99830292  0.33200849  0.12772256    -0.36600
N1940       N  0.54422493  0.37750198  0.12370400    -0.57100
C1941       C  0.97415775  0.44073671  0.11981209     0.27000
C1942       C  0.52322754  0.44078809  0.11971223     0.27000
C1943       C  0.97401906  0.31474064  0.12344185     0.27000
C1944       C  0.52194989  0.31451505  0.12065150     0.27000
C1945       C  0.93483435  0.40225258  0.12744261     0.35600
C1946       C  0.93473362  0.35372629  0.12869369     0.35600
C1947       C  0.56178186  0.40168969  0.12762655     0.35600
C1948       C  0.56141681  0.35308005  0.12764771     0.35600
C1949       C  0.98314577  0.46871832  0.11175969    -0.21900
C1950       C  0.51492016  0.46909978  0.11192792    -0.21900
C1951       C  0.98311712  0.28621513  0.11682331    -0.21900
C1952       C  0.51281527  0.28617179  0.11359321    -0.21900
C1953       C  0.90598124  0.39361611  0.13326754    -0.22900
C1954       C  0.90591097  0.36283171  0.13401306    -0.22900
C1955       C  0.59029886  0.39261188  0.13392823    -0.22900
C1956       C  0.59007634  0.36181301  0.13392802    -0.22900
C1957       C  0.94410010  0.43214636  0.12352024    -0.18300
C1958       C  0.55299370  0.43182478  0.12417464    -0.18300
C1959       C  0.55212654  0.32301887  0.12439055    -0.18300
C1960       C  0.94386161  0.32358829  0.12619776    -0.18300
H1961       H  0.96902122  0.48720756  0.10640265     0.14600
H1962       H  0.52945917  0.48766606  0.10743158     0.14600
H1963       H  0.96911765  0.26720764  0.11242925     0.14600
H1964       H  0.52683995  0.26712971  0.10940413     0.14600
H1965       H  0.88689619  0.40797075  0.13642025     0.12900
H1966       H  0.88679289  0.34875666  0.13785342     0.12900
H1967       H  0.60935624  0.40670045  0.13790153     0.12900
H1968       H  0.60892553  0.34749934  0.13795615     0.12900
H1969       H  0.99837990  0.40377792  0.13406595     0.26200
H1970       H  0.99826208  0.35312047  0.13542022     0.26200
N1971       N  0.75187784  0.41912899  0.37169100    -0.36600
N1972       N  0.70542175  0.37294970  0.37432729    -0.57100
N1973       N  0.75131638  0.32683795  0.37454044    -0.36600
N1974       N  0.79774643  0.37305780  0.37551184    -0.57100
C1975       C  0.72740749  0.43643943  0.37511136     0.27000
C1976       C  0.77617475  0.43639129  0.37612641     0.27000
C1977       C  0.72691019  0.30995158  0.37940795     0.27000
C1978       C  0.77565123  0.31000145  0.37952710     0.27000
C1979       C  0.68804897  0.39712353  0.36992357     0.35600
C1980       C  0.68775571  0.34851474  0.37169804     0.35600
C1981       C  0.81546312  0.39716002  0.37162648     0.35600
C1982       C  0.81507987  0.34858388  0.37226931     0.35600
C1983       C  0.73628969  0.46518900  0.38135622    -0.21900
C1984       C  0.76700374  0.46514997  0.38202395    -0.21900
C1985       C  0.73587668  0.28195461  0.38740474    -0.21900
C1986       C  0.76661678  0.28197843  0.38746421    -0.21900
C1987       C  0.65918355  0.38799706  0.36464766    -0.22900
C1988       C  0.65900092  0.35722847  0.36576664    -0.22900
C1989       C  0.84419369  0.38797997  0.36610056    -0.22900
C1990       C  0.84393232  0.35720186  0.36641512    -0.22900
C1991       C  0.69728253  0.42739997  0.37200261    -0.18300
C1992       C  0.80643743  0.42737909  0.37401229    -0.18300
C1993       C  0.80576771  0.31860557  0.37586797    -0.18300
C1994       C  0.69680157  0.31851500  0.37570223    -0.18300
H1995       H  0.72211557  0.48427169  0.38509592     0.14600
H1996       H  0.78097846  0.48420922  0.38633627     0.14600
H1997       H  0.72174357  0.26333985  0.39253310     0.14600
H1998       H  0.78071647  0.26338606  0.39264001     0.14600
H1999       H  0.64016070  0.40205042  0.36056089     0.12900
H2000       H  0.63983248  0.34293393  0.36267955     0.12900
H2001       H  0.86334140  0.40199358  0.36222045     0.12900
H2002       H  0.86289834  0.34283525  0.36287655     0.12900
H2003       H  0.75200557  0.39775173  0.36447984     0.26200
H2004       H  0.75145267  0.34727729  0.36579245     0.26200
N2005       N  0.70376461  0.12031842  0.62482764    -0.36600
N2006       N  0.75062806  0.07548743  0.62509551    -0.57100
N2007       N  0.79542506  0.12320267  0.62292711    -0.36600
N2008       N  0.74850729  0.16797319  0.62587247    -0.57100
C2009       C  0.68756478  0.09535022  0.62936250     0.27000
C2010       C  0.68641265  0.14411211  0.63033280     0.27000
C2011       C  0.81293688  0.09920414  0.62770102     0.27000
C2012       C  0.81184553  0.14813155  0.62731289     0.27000
C2013       C  0.72691305  0.05715804  0.62177117     0.35600
C2014       C  0.77526771  0.05860506  0.62152724     0.35600
C2015       C  0.72363075  0.18486750  0.62341639     0.35600
C2016       C  0.77196671  0.18645837  0.62194021     0.35600
C2017       C  0.65953531  0.10336697  0.63767539    -0.21900
C2018       C  0.65881734  0.13416033  0.63831065    -0.21900
C2019       C  0.84086726  0.10901326  0.63500485    -0.21900
C2020       C  0.84018988  0.13987262  0.63472035    -0.21900
C2021       C  0.73650784  0.02845076  0.61625235    -0.22900
C2022       C  0.76716708  0.02934763  0.61614180    -0.22900
C2023       C  0.73132492  0.21426857  0.61818022    -0.22900
C2024       C  0.76194366  0.21527013  0.61721870    -0.22900
C2025       C  0.69678522  0.06555567  0.62508078    -0.18300
C2026       C  0.69411007  0.17456712  0.62708117    -0.18300
C2027       C  0.80233889  0.17813167  0.62398704    -0.18300
C2028       C  0.80496982  0.06870903  0.62454189    -0.18300
H2029       H  0.64141045  0.08856823  0.64267062     0.14600
H2030       H  0.64000291  0.14768534  0.64384761     0.14600
H2031       H  0.85984822  0.09534946  0.63994247     0.14600
H2032       H  0.85849997  0.15456094  0.63946232     0.14600
H2033       H  0.72286832  0.00883537  0.61292211     0.12900
H2034       H  0.78181653  0.01054132  0.61267862     0.12900
H2035       H  0.71644698  0.23309454  0.61546687     0.12900
H2036       H  0.77528459  0.23502919  0.61365171     0.12900
H2037       H  0.72401232  0.12113730  0.61593177     0.26200
H2038       H  0.77470327  0.12259503  0.61472815     0.26200
N2039       N  0.99587333  0.16908927  0.87357502    -0.36600
N2040       N  0.95166846  0.12145054  0.87412110    -0.57100
N2041       N  0.99938466  0.07700595  0.87228666    -0.36600
N2042       N  0.54459426  0.12408992  0.87577365    -0.57100
C2043       C  0.97081009  0.18506259  0.87790735     0.27000
C2044       C  0.52278640  0.18721368  0.88006635     0.27000
C2045       C  0.97570665  0.05908004  0.87702178     0.27000
C2046       C  0.52301627  0.06068827  0.87758665     0.27000
C2047       C  0.93330840  0.14499573  0.87027793     0.35600
C2048       C  0.93508258  0.09651645  0.87069305     0.35600
C2049       C  0.56212275  0.14853013  0.87285700     0.35600
C2050       C  0.56219275  0.09995125  0.87193800     0.35600
C2051       C  0.97845229  0.21337778  0.88607368    -0.21900
C2052       C  0.51392010  0.21557952  0.88728154    -0.21900
C2053       C  0.98579389  0.03102180  0.88398296    -0.21900
C2054       C  0.51420517  0.03207854  0.88429597    -0.21900
C2055       C  0.90491031  0.13500277  0.86449533    -0.22900
C2056       C  0.90601088  0.10425036  0.86481372    -0.22900
C2057       C  0.59103695  0.13985990  0.86732281    -0.22900
C2058       C  0.59108583  0.10908567  0.86675209    -0.22900
C2059       C  0.94128192  0.17533778  0.87356404    -0.18300
C2060       C  0.55285659  0.17853276  0.87632016    -0.18300
C2061       C  0.55307522  0.06974770  0.87447721    -0.18300
C2062       C  0.94526391  0.06688548  0.87423292    -0.18300
H2063       H  0.96348606  0.23144983  0.89085482     0.14600
H2064       H  0.52810694  0.23448278  0.89158428     0.14600
H2065       H  0.97242491  0.01169823  0.88875236     0.14600
H2066       H  0.52841015  0.01318410  0.88853118     0.14600
H2067       H  0.88534802  0.14845341  0.86075525     0.12900
H2068       H  0.88747006  0.08930067  0.86127808     0.12900
H2069       H  0.61017503  0.15419051  0.86420050     0.12900
H2070       H  0.61026862  0.09505018  0.86310722     0.12900
H2071       H  0.99691727  0.14872581  0.86474996     0.26200
H2072       H  0.99857147  0.09793598  0.86430316     0.26200
C2073       C  0.63340101  0.21073590  0.19402321    -0.26300
C2074       C  0.60911061  0.19221025  0.20000821    -0.14400
C2075       C  0.58142640  0.19653426  0.18843751     0.36300
C2076       C  0.57885853  0.21899667  0.17109381    -0.25700
C2077       C  0.60339203  0.23691719  0.16479395    -0.15000
C2078       C  0.63078864  0.23314047  0.17673615     0.37400
N2079       N  0.65583533  0.25216635  0.17129262    -0.89200
H2080       H  0.65457348  0.20785760  0.20298888     0.18500
H2081       H  0.55790661  0.22178887  0.16178668     0.18500
N2082       N  0.55629051  0.17758253  0.19372971    -0.88300
H2083       H  0.67435404  0.24644129  0.18157108     0.35800
H2084       H  0.64999469  0.27410757  0.17589791     0.40900
H2085       H  0.56170323  0.15583436  0.18830037     0.40600
H2086       H  0.53759052  0.18403132  0.18392662     0.35400
C2087       C  0.57716703  0.03388459  0.17083871    -0.26300
C2088       C  0.60205302  0.01803786  0.16248904    -0.14400
C2089       C  0.63022921  0.02277107  0.17297172     0.36300
C2090       C  0.63322851  0.04443860  0.19073584    -0.25700
C2091       C  0.60857171  0.06118641  0.19862041    -0.15000
C2092       C  0.58005957  0.05550650  0.18871725     0.37400
N2093       N  0.55426880  0.07212263  0.19631516    -0.89200
H2094       H  0.55555018  0.03013998  0.16275222     0.18500
H2095       H  0.65500936  0.04813690  0.19853917     0.18500
N2096       N  0.65565290  0.00543253  0.16558764    -0.88300
H2097       H  0.53502253  0.06453540  0.18773491     0.35800
H2098       H  0.55731319  0.09442858  0.19111208     0.40900
H2099       H  0.65135202  0.98299420  0.16979429     0.40600
H2100       H  0.67473622  0.01166948  0.17501372     0.35400
C2101       C  0.64143446  0.19920919  0.34337041    -0.26300
C2102       C  0.64630580  0.22969841  0.33813123    -0.14400
C2103       C  0.64638262  0.23910554  0.31434251     0.36300
C2104       C  0.64222679  0.21776989  0.29639376    -0.25700
C2105       C  0.63688908  0.18759839  0.30181488    -0.15000
C2106       C  0.63640078  0.17812814  0.32543717     0.37400
N2107       N  0.63060828  0.14719128  0.33106490    -0.89200
H2108       H  0.64138011  0.19185508  0.36155848     0.18500
H2109       H  0.64228739  0.22479577  0.27812245     0.18500
N2110       N  0.64967951  0.27033332  0.30852122    -0.88300
H2111       H  0.63075846  0.14393702  0.34929633     0.35800
H2112       H  0.64819872  0.13444681  0.32426888     0.40900
H2113       H  0.63116498  0.28169029  0.31534333     0.40600
H2114       H  0.64916365  0.27342849  0.29027818     0.35400
C2115       C  0.66831319  0.03321889  0.32772113    -0.26300
C2116       C  0.64431691  0.01481876  0.33427519    -0.14400
C2117       C  0.61666089  0.01775542  0.32261589     0.36300
C2118       C  0.61318550  0.04005294  0.30533826    -0.25700
C2119       C  0.63692587  0.05920310  0.29919316    -0.15000
C2120       C  0.66494198  0.05552378  0.31042803     0.37400
N2121       N  0.68964673  0.07490781  0.30481807    -0.89200
H2122       H  0.68946650  0.03094821  0.33683762     0.18500
H2123       H  0.59182479  0.04239337  0.29655496     0.18500
N2124       N  0.59226341  0.99806273  0.32840008    -0.88300
H2125       H  0.70868111  0.06877404  0.31434295     0.35800
H2126       H  0.68403242  0.09655118  0.31033995     0.40900
H2127       H  0.59866279  0.97626529  0.32383183     0.40600
H2128       H  0.57345106  0.00317541  0.31825377     0.35400
C2129       C  0.84142446  0.45945917  0.07768612    -0.26300
C2130       C  0.85789904  0.48455035  0.08496737    -0.14400
C2131       C  0.85339027  0.00812327  0.07277695     0.36300
C2132       C  0.83108999  0.01106937  0.05566304    -0.25700
C2133       C  0.81331316  0.49023434  0.05003346    -0.15000
C2134       C  0.81920740  0.46202090  0.06041387     0.37400
N2135       N  0.80216142  0.43603550  0.05405559    -0.89200
H2136       H  0.84519594  0.43786871  0.08596541     0.18500
H2137       H  0.82886822  0.03216069  0.04632511     0.18500
N2138       N  0.87335734  0.03263499  0.07770670    -0.88300
H2139       H  0.79176720  0.42777903  0.06922643     0.35800
H2140       H  0.81695984  0.41964536  0.04794353     0.40900
H2141       H  0.89492997  0.02573692  0.07316459     0.40600
H2142       H  0.86838563  0.05112046  0.06706651     0.35400
C2143       C  0.66293396  0.51343062  0.05514308    -0.26300
C2144       C  0.68315044  0.48999791  0.05065767    -0.14400
C2145       C  0.67129540  0.96108489  0.05639570     0.36300
C2146       C  0.64948297  0.95934079  0.07412792    -0.25700
C2147       C  0.63913136  0.48413264  0.08595151    -0.15000
C2148       C  0.64095640  0.51065183  0.07259393     0.37400
N2149       N  0.62020076  0.53460016  0.07650163    -0.89200
H2150       H  0.66402784  0.53396428  0.04494419     0.18500
H2151       H  0.64412722  0.93771689  0.08178510     0.18500
N2152       N  0.68547635  0.93411304  0.04816191    -0.88300
H2153       H  0.60885044  0.53864404  0.06073016     0.35800
H2154       H  0.63236158  0.55389472  0.08075244     0.40900
H2155       H  0.67826557  0.93051280  0.03088369     0.40600
H2156       H  0.67820479  0.91550763  0.05782469     0.35400
C2157       C  0.84364633  0.04263401  0.92249473    -0.26300
C2158       C  0.86006836  0.01718410  0.91599009    -0.14400
C2159       C  0.85665372  0.49340396  0.92918641     0.36300
C2160       C  0.83400438  0.49094172  0.94611931    -0.25700
C2161       C  0.81579717  0.01326395  0.95133923    -0.15000
C2162       C  0.82164845  0.04105189  0.93996370     0.37400
N2163       N  0.80506062  0.06777297  0.94499896    -0.89200
H2164       H  0.84726035  0.06370550  0.91337567     0.18500
H2165       H  0.83270426  0.47070403  0.95666442     0.18500
N2166       N  0.87786824  0.46961650  0.92638352    -0.88300
H2167       H  0.80864986  0.07378558  0.96255081     0.35800
H2168       H  0.78234566  0.06351642  0.94226931     0.40900
H2169       H  0.86614769  0.44999116  0.92230315     0.40600
H2170       H  0.88861924  0.46635900  0.94252392     0.35400
C2171       C  0.68287761  0.03978196  0.93570040    -0.26300
C2172       C  0.68378008  0.01342220  0.94919235    -0.14400
C2173       C  0.65948211  0.49261737  0.94696457     0.36300
C2174       C  0.63853126  0.49666575  0.92894091    -0.25700
C2175       C  0.63984541  0.02087198  0.91428180    -0.15000
C2176       C  0.66132821  0.04358900  0.91814538     0.37400
N2177       N  0.66261105  0.07003703  0.90382342    -0.89200
H2178       H  0.69956104  0.05711255  0.93830885     0.18500
H2179       H  0.62074216  0.48038802  0.92669231     0.18500
N2180       N  0.65666709  0.46755439  0.96261206    -0.88300
H2181       H  0.64271521  0.08198545  0.90586511     0.35800
H2182       H  0.66459342  0.06352887  0.88620774     0.38500
H2183       H  0.65718210  0.44792195  0.95254442     0.40600
H2184       H  0.63577049  0.46882942  0.97079146     0.35400
C2185       C  0.91133023  0.19432125  0.18712178    -0.26300
C2186       C  0.88287642  0.19102248  0.19739525    -0.14400
C2187       C  0.85915819  0.20928517  0.18905771     0.36300
C2188       C  0.86460753  0.23043016  0.17136203    -0.25700
C2189       C  0.89306141  0.23373788  0.16131455    -0.15000
C2190       C  0.91655895  0.21507360  0.16909990     0.37400
N2191       N  0.94551586  0.21559456  0.15831323    -0.89200
H2192       H  0.92966439  0.18015776  0.19274950     0.18500
H2193       H  0.84633020  0.24437896  0.16527766     0.18500
N2194       N  0.82940647  0.20730724  0.19824127    -0.88300
H2195       H  0.95533024  0.23654394  0.16107613     0.35800
H2196       H  0.94297273  0.21219921  0.14021083     0.40900
H2197       H  0.83011193  0.21064985  0.21644901     0.40600
H2198       H  0.82079854  0.18601356  0.19457614     0.35400
C2199       C  0.86160579  0.04247075  0.19249156    -0.26300
C2200       C  0.88545393  0.06193972  0.19752757    -0.14400
C2201       C  0.91265779  0.05892718  0.18503760     0.36300
C2202       C  0.91529579  0.03645344  0.16785973    -0.25700
C2203       C  0.89122895  0.01747536  0.16268333    -0.15000
C2204       C  0.86431943  0.02027649  0.17525485     0.37400
N2205       N  0.83986153  0.00031772  0.17074712    -0.89200
H2206       H  0.84075924  0.04428040  0.20210384     0.18500
H2207       H  0.93585284  0.03433535  0.15790099     0.18500
N2208       N  0.93716817  0.07908388  0.18932520    -0.88300
H2209       H  0.82135297  0.01321413  0.16588836     0.35800
H2210       H  0.83465562  0.98919860  0.18643683     0.40900
H2211       H  0.93043427  0.10051518  0.18402689     0.40600
H2212       H  0.95556818  0.07344373  0.17887563     0.35400
C2213       C  0.88181706  0.21187838  0.30302074    -0.26300
C2214       C  0.86036701  0.18913907  0.30033342    -0.14400
C2215       C  0.83577829  0.18784823  0.31597827     0.36300
C2216       C  0.83353411  0.20913778  0.33415286    -0.25700
C2217       C  0.85524923  0.23150083  0.33692468    -0.15000
C2218       C  0.87940599  0.23310129  0.32099803     0.37400
N2219       N  0.90148646  0.25633811  0.32245144    -0.89200
H2220       H  0.90056850  0.21324438  0.29097912     0.18500
H2221       H  0.81506737  0.20802421  0.34647663     0.18500
N2222       N  0.81401865  0.16420233  0.31412855    -0.88300
H2223       H  0.91241500  0.25471708  0.33864544     0.35800
H2224       H  0.89062943  0.27708085  0.32162494     0.40900
H2225       H  0.80134183  0.16826057  0.29901400     0.40600
H2226       H  0.79902548  0.16505940  0.32823608     0.35400
C2227       C  0.88179486  0.01654107  0.32107382    -0.26300
C2228       C  0.85582939  0.01691155  0.33487752    -0.14400
C2229       C  0.83321593  0.03806139  0.32994505     0.36300
C2230       C  0.83730735  0.05876954  0.31174224    -0.25700
C2231       C  0.86375309  0.05922971  0.29839850    -0.15000
C2232       C  0.88602339  0.03736224  0.30292949     0.37400
N2233       N  0.91282915  0.03528903  0.28922840    -0.89200
H2234       H  0.89910225  0.00015402  0.32465579     0.18500
H2235       H  0.82000607  0.07527848  0.30851983     0.18500
N2236       N  0.80648706  0.03989058  0.34377069    -0.88300
H2237       H  0.92549862  0.05471738  0.29173146     0.35800
H2238       H  0.90699838  0.03347834  0.27145929     0.40900
H2239       H  0.81246597  0.04285387  0.36141108     0.40600
H2240       H  0.79472422  0.01974435  0.34218244     0.35400
C2241       C  0.65541907  0.29718055  0.07777580    -0.26300
C2242       C  0.64015529  0.27191146  0.08642309    -0.14400
C2243       C  0.64664747  0.24349956  0.07680287     0.36300
C2244       C  0.66879049  0.24062340  0.05955392    -0.25700
C2245       C  0.68474564  0.26563984  0.05122357    -0.15000
C2246       C  0.67779801  0.29439306  0.06040316     0.37400
N2247       N  0.69376285  0.32055124  0.05253027    -0.89200
H2248       H  0.65057467  0.31904536  0.08518874     0.18500
H2249       H  0.67330032  0.21847618  0.05253418     0.18500
N2250       N  0.63041250  0.21742947  0.08423027    -0.88300
H2251       H  0.71590440  0.31838663  0.05815471     0.35800
H2252       H  0.68538053  0.33988374  0.06059732     0.40900
H2253       H  0.64573946  0.20183487  0.09080616     0.40600
H2254       H  0.62012046  0.20800640  0.06945313     0.35400
C2255       C  0.81840846  0.28993676  0.06056595    -0.26300
C2256       C  0.81684556  0.26257130  0.04831252    -0.14400
C2257       C  0.83871786  0.24029411  0.05281883     0.36300
C2258       C  0.86029924  0.24520985  0.07018472    -0.25700
C2259       C  0.86076983  0.27191141  0.08321197    -0.15000
C2260       C  0.84005849  0.29469122  0.07802179     0.37400
N2261       N  0.84013017  0.32212796  0.09115578    -0.89200
H2262       H  0.80208804  0.30737367  0.05719218     0.18500
H2263       H  0.87650610  0.22777030  0.07390149     0.18500
N2264       N  0.84001578  0.21274159  0.03986310    -0.88300
H2265       H  0.81926523  0.32445886  0.09923520     0.35800
H2266       H  0.84281671  0.33988177  0.07930002     0.40900
H2267       H  0.84090099  0.21773682  0.02188591     0.40600
H2268       H  0.82083409  0.20016353  0.04339972     0.35400
C2269       C  0.66511174  0.26257018  0.94386687    -0.26300
C2270       C  0.68254532  0.23785158  0.95076458    -0.14400
C2271       C  0.67739370  0.20973232  0.94002410     0.36300
C2272       C  0.65530454  0.20690339  0.92265629    -0.25700
C2273       C  0.63837442  0.23170953  0.91546893    -0.15000
C2274       C  0.64298418  0.25977333  0.92644157     0.37400
N2275       N  0.62516314  0.28527405  0.91985696    -0.89200
H2276       H  0.66867308  0.28417711  0.95215101     0.18500
H2277       H  0.65209175  0.18537329  0.91414190     0.18500
N2278       N  0.69526895  0.18418893  0.94598217    -0.88300
H2279       H  0.63144048  0.30424098  0.92950102     0.35800
H2280       H  0.60302192  0.28053414  0.92442647     0.40900
H2281       H  0.70592086  0.17670506  0.93068604     0.40600
H2282       H  0.68100788  0.16714014  0.95181939     0.35400
C2283       C  0.83077583  0.25808005  0.94221475    -0.26300
C2284       C  0.81305780  0.23383559  0.94964784    -0.14400
C2285       C  0.81772391  0.20529544  0.93938802     0.36300
C2286       C  0.83898499  0.20194216  0.92137904    -0.25700
C2287       C  0.85567532  0.22658008  0.91336667    -0.15000
C2288       C  0.85206323  0.25464517  0.92437680     0.37400
N2289       N  0.87025693  0.27969033  0.91763992    -0.89200
H2290       H  0.82814965  0.27996284  0.95026749     0.18500
H2291       H  0.84176447  0.18020237  0.91311063     0.18500
N2292       N  0.80037450  0.17986623  0.94659212    -0.88300
H2293       H  0.88187303  0.28707193  0.93252198     0.35800
H2294       H  0.85614134  0.29701940  0.91215007     0.40900
H2295       H  0.81506736  0.16320534  0.95240905     0.40600
H2296       H  0.78902021  0.17162128  0.93186176     0.35400
C2297       C  0.91355477  0.50916398  0.44645889    -0.26300
C2298       C  0.93626754  0.48772943  0.44934260    -0.14400
C2299       C  0.93607652  0.46185290  0.43498793     0.36300
C2300       C  0.91384816  0.45826558  0.41772231    -0.25700
C2301       C  0.89169510  0.48010233  0.41444308    -0.15000
C2302       C  0.89123167  0.50548978  0.42937754     0.37400
N2303       N  0.86800427  0.52752565  0.42790633    -0.89200
H2304       H  0.91301701  0.52882627  0.45767632     0.18500
H2305       H  0.91442561  0.43875034  0.40634373     0.18500
N2306       N  0.95691707  0.93755209  0.43691857    -0.88300
H2307       H  0.84744993  0.51664963  0.42994196     0.35800
H2308       H  0.86858011  0.53747407  0.41126721     0.40900
H2309       H  0.96843166  0.93539014  0.42098684     0.40600
H2310       H  0.94525355  0.91757373  0.43993336     0.35400
C2311       C  0.91769812  0.49189058  0.55540461    -0.26300
C2312       C  0.93604303  0.01033721  0.55093758    -0.14400
C2313       C  0.93127001  0.03859282  0.56173281     0.36300
C2314       C  0.90925778  0.04146347  0.57929534    -0.25700
C2315       C  0.89178924  0.01689476  0.58635543    -0.15000
C2316       C  0.89582634  0.49469362  0.57290465     0.37400
N2317       N  0.87485646  0.47044731  0.57577360    -0.89200
H2318       H  0.91827789  0.47152762  0.54498096     0.18500
H2319       H  0.90630794  0.06284893  0.58807890     0.18500
N2320       N  0.94916385  0.06414304  0.55532828    -0.88300
H2321       H  0.86336794  0.46801290  0.55985974     0.35800
H2322       H  0.85857280  0.47533134  0.58832635     0.40900
H2323       H  0.97107053  0.05981774  0.56075095     0.40600
H2324       H  0.94222222  0.08328141  0.56445878     0.35400
C2325       C  0.58990201  0.48892869  0.55155864    -0.26300
C2326       C  0.56596454  0.01296233  0.55013964    -0.14400
C2327       C  0.56922342  0.03976644  0.56314697     0.36300
C2328       C  0.59068342  0.04140122  0.58114648    -0.25700
C2329       C  0.60901575  0.01674861  0.58635736    -0.15000
C2330       C  0.61193331  0.49081573  0.56890869     0.37400
N2331       N  0.63250440  0.46636522  0.57129312    -0.89200
H2332       H  0.58828189  0.46859948  0.54116180     0.18500
H2333       H  0.59263816  0.06181172  0.59141379     0.18500
N2334       N  0.55030112  0.06503636  0.55865866    -0.88300
H2335       H  0.63014353  0.45669093  0.58791169     0.35800
H2336       H  0.65422427  0.47477809  0.56965524     0.40900
H2337       H  0.56390417  0.08335095  0.55442367     0.40600
H2338       H  0.53884758  0.07016315  0.57419123     0.35400
C2339       C  0.58291844  0.01372328  0.44118771    -0.26300
C2340       C  0.56782283  0.48643772  0.44744307    -0.14400
C2341       C  0.57370165  0.45773811  0.43763943     0.36300
C2342       C  0.59533692  0.45483456  0.41977323    -0.25700
C2343       C  0.61149524  0.47972715  0.41162780    -0.15000
C2344       C  0.60517801  0.01121739  0.42383964     0.37400
N2345       N  0.62066950  0.03752273  0.41564432    -0.89200
H2346       H  0.57727453  0.03577667  0.44785128     0.18500
H2347       H  0.59917557  0.43309894  0.41177286     0.18500
N2348       N  0.55718890  0.43176535  0.44519441    -0.88300
H2349       H  0.61280070  0.05673224  0.42419331     0.35800
H2350       H  0.64315875  0.03523644  0.42029117     0.40900
H2351       H  0.56435496  0.42651900  0.46221891     0.40600
H2352       H  0.56251441  0.41313661  0.43482134     0.35400
C2353       C  0.58430617  0.23729251  0.44473443    -0.26300
C2354       C  0.56663816  0.26188265  0.45143657    -0.14400
C2355       C  0.57130205  0.28998758  0.44026059     0.36300
C2356       C  0.59292123  0.29243827  0.42234616    -0.25700
C2357       C  0.61010479  0.26763783  0.41551870    -0.15000
C2358       C  0.60602738  0.23999170  0.42712203     0.37400
N2359       N  0.62423333  0.21463585  0.42125166    -0.89200
H2360       H  0.58141651  0.21574661  0.45330011     0.18500
H2361       H  0.59601063  0.31366153  0.41333919     0.18500
N2362       N  0.55352906  0.31567632  0.44644475    -0.88300
H2363       H  0.61015730  0.19717566  0.41591821     0.35800
H2364       H  0.63541255  0.20773776  0.43647903     0.40900
H2365       H  0.56036108  0.32270329  0.46315463     0.40600
H2366       H  0.55801736  0.33362865  0.43511696     0.35400
C2367       C  0.56512598  0.20700776  0.56511078    -0.26300
C2368       C  0.56505218  0.23466152  0.55319104    -0.14400
C2369       C  0.58548569  0.25720459  0.56006533     0.36300
C2370       C  0.60516237  0.25167515  0.57880627    -0.25700
C2371       C  0.60494556  0.22421022  0.59088408    -0.15000
C2372       C  0.58437660  0.20163158  0.58412521     0.37400
N2373       N  0.58165641  0.17349882  0.59641234    -0.89200
H2374       H  0.54928183  0.18970384  0.56018733     0.18500
H2375       H  0.62093709  0.26890609  0.58403373     0.18500
N2376       N  0.58642618  0.28551007  0.54791792    -0.88300
H2377       H  0.55998576  0.17232049  0.60324722     0.35800
H2378       H  0.59592500  0.17229857  0.61088323     0.40900
H2379       H  0.59342509  0.28132201  0.53066420     0.40600
H2380       H  0.60242339  0.29970370  0.55541537     0.35400
C2381       C  0.90369948  0.23539826  0.54421388    -0.26300
C2382       C  0.93403840  0.23565609  0.55041298    -0.14400
C2383       C  0.94234414  0.23274117  0.57419276     0.36300
C2384       C  0.92007430  0.22983246  0.59148609    -0.25700
C2385       C  0.88961799  0.22985317  0.58548735    -0.15000
C2386       C  0.88130314  0.23277438  0.56158514     0.37400
N2387       N  0.85026165  0.23395399  0.55515451    -0.89200
H2388       H  0.89751520  0.23803449  0.52588198     0.18500
H2389       H  0.92648008  0.22759532  0.60980150     0.18500
N2390       N  0.97340466  0.23325373  0.58067275    -0.88300
H2391       H  0.84797088  0.23628937  0.53692552     0.35800
H2392       H  0.84117047  0.25330329  0.56270161     0.40900
H2393       H  0.98354421  0.21435476  0.57325482     0.40600
H2394       H  0.97579198  0.23123230  0.59891568     0.35400
C2395       C  0.90869341  0.26867203  0.45499701    -0.26300
C2396       C  0.93845422  0.26283087  0.44898314    -0.14400
C2397       C  0.94670773  0.26025779  0.42516536     0.36300
C2398       C  0.92485342  0.26389104  0.40766532    -0.25700
C2399       C  0.89472365  0.26902032  0.41353429    -0.15000
C2400       C  0.88655065  0.27116698  0.43755076     0.37400
N2401       N  0.85577532  0.27489847  0.44419421    -0.89200
H2402       H  0.90258261  0.27025345  0.47342429     0.18500
H2403       H  0.93136154  0.26256452  0.38932039     0.18500
N2404       N  0.97732938  0.25462897  0.41886250    -0.88300
H2405       H  0.85364617  0.27606179  0.46250387     0.35800
H2406       H  0.84420489  0.25569283  0.43881960     0.40900
H2407       H  0.98283038  0.23312645  0.42480128     0.40600
H2408       H  0.97980893  0.25427682  0.40055870     0.35400
C2409       C  0.61766821  0.25984256  0.68200771    -0.26300
C2410       C  0.64337647  0.25962365  0.66793736    -0.14400
C2411       C  0.66562518  0.28167240  0.67140460     0.36300
C2412       C  0.66146316  0.30373768  0.68855929    -0.25700
C2413       C  0.63522616  0.30469345  0.70209482    -0.15000
C2414       C  0.61331013  0.28206266  0.69899172     0.37400
N2415       N  0.58672138  0.28065995  0.71301932    -0.89200
H2416       H  0.60057676  0.24289744  0.67943680     0.18500
H2417       H  0.67844078  0.32087299  0.69076315     0.18500
N2418       N  0.69192674  0.28306478  0.65704230    -0.88300
H2419       H  0.57360390  0.29951819  0.70954305     0.35800
H2420       H  0.59279394  0.28057111  0.73079579     0.40900
H2421       H  0.68543012  0.28439027  0.63939237     0.40600
H2422       H  0.70427790  0.26343824  0.65947748     0.35400
C2423       C  0.63329360  0.28931934  0.80640551    -0.26300
C2424       C  0.60941394  0.30849306  0.80074190    -0.14400
C2425       C  0.58186072  0.30496512  0.81283660     0.36300
C2426       C  0.57922087  0.28318102  0.83046128    -0.25700
C2427       C  0.60339692  0.26474611  0.83641780    -0.15000
C2428       C  0.63044564  0.26747961  0.82399402     0.37400
N2429       N  0.65498204  0.24789709  0.82909128    -0.89200
H2430       H  0.65437330  0.29120848  0.79711910     0.18500
H2431       H  0.55837035  0.28120420  0.84006396     0.18500
N2432       N  0.55651866  0.32372981  0.80835084    -0.88300
H2433       H  0.67330816  0.26110793  0.83390032     0.35800
H2434       H  0.66052231  0.23640638  0.81365013     0.40900
H2435       H  0.54936550  0.32030211  0.79105305     0.40600
H2436       H  0.56283058  0.34614865  0.81056913     0.35400
C2437       C  0.63775636  0.45286068  0.80936566    -0.26300
C2438       C  0.61224164  0.43974875  0.79925976    -0.14400
C2439       C  0.58362528  0.44919129  0.80701785     0.36300
C2440       C  0.58144803  0.47005715  0.82548212    -0.25700
C2441       C  0.60703531  0.48265759  0.83579992    -0.15000
C2442       C  0.63542432  0.47441113  0.82717316     0.37400
N2443       N  0.66201488  0.48831724  0.83604950    -0.89200
H2444       H  0.65985535  0.44655038  0.80335021     0.18500
H2445       H  0.55956920  0.47635636  0.83197528     0.18500
N2446       N  0.55684181  0.43745991  0.79647465    -0.88300
H2447       H  0.67591996  0.47148583  0.84271180     0.35800
H2448       H  0.67307370  0.49859467  0.82197196     0.40900
H2449       H  0.55568846  0.44598319  0.77934414     0.40600
H2450       H  0.53786787  0.44547442  0.80518343     0.35400
C2451       C  0.61357309  0.44974622  0.68760264    -0.26300
C2452       C  0.63866204  0.43769160  0.69905682    -0.14400
C2453       C  0.66740991  0.44856481  0.69286955     0.36300
C2454       C  0.67029532  0.46936184  0.67432473    -0.25700
C2455       C  0.64513234  0.48080872  0.66255905    -0.15000
C2456       C  0.61645973  0.47153265  0.67000124     0.37400
N2457       N  0.64289464  0.01945443  0.69298306    -0.89200
H2458       H  0.59127767  0.44257896  0.69249676     0.18500
H2459       H  0.69240914  0.47649977  0.66894366     0.18500
N2460       N  0.69360010  0.43860165  0.70526519    -0.88300
H2461       H  0.64070663  0.02249422  0.71115532     0.35800
H2462       H  0.62406409  0.02920211  0.68523230     0.40900
H2463       H  0.69227319  0.44709574  0.72239434     0.40600
H2464       H  0.71290708  0.44790816  0.69787808     0.35400
C2465       C  0.91408357  0.28127259  0.83012724    -0.26300
C2466       C  0.89014434  0.26172694  0.83457758    -0.14400
C2467       C  0.86368866  0.26426817  0.82101394     0.36300
C2468       C  0.86140475  0.28725865  0.80428197    -0.25700
C2469       C  0.88517061  0.30711971  0.80003235    -0.15000
C2470       C  0.91187570  0.30384067  0.81298611     0.37400
N2471       N  0.93642280  0.32399905  0.80943133    -0.89200
H2472       H  0.93435940  0.27951548  0.84047932     0.18500
H2473       H  0.84095283  0.28922084  0.79418087     0.18500
N2474       N  0.83889923  0.24388804  0.82345281    -0.88300
H2475       H  0.95516418  0.31130080  0.80480802     0.35800
H2476       H  0.94096433  0.33469568  0.82541883     0.40900
H2477       H  0.84359454  0.22655419  0.83521445     0.40600
H2478       H  0.83568898  0.23348809  0.80714696     0.35400
C2479       C  0.83254801  0.30636428  0.68827857    -0.26300
C2480       C  0.86055215  0.30907669  0.69933393    -0.14400
C2481       C  0.88389034  0.28968405  0.69235498     0.36300
C2482       C  0.87912378  0.26877202  0.67429105    -0.25700
C2483       C  0.85140232  0.26652012  0.66290594    -0.15000
C2484       C  0.82780243  0.28556291  0.67011592     0.37400
N2485       N  0.79932264  0.28542344  0.65858342    -0.89200
H2486       H  0.81438882  0.32111454  0.69329140     0.18500
H2487       H  0.89735059  0.25424309  0.66900698     0.18500
N2488       N  0.91245725  0.29084338  0.70369218    -0.88300
H2489       H  0.78914526  0.26459594  0.66112585     0.35800
H2490       H  0.80267299  0.28875241  0.64055274     0.40900
H2491       H  0.92863995  0.29529627  0.69087268     0.40600
H2492       H  0.91688710  0.26968870  0.71085139     0.35400
C2493       C  0.88836052  0.45787391  0.69434477    -0.26300
C2494       C  0.86316163  0.44094635  0.70091500    -0.14400
C2495       C  0.83536786  0.44710757  0.69002698     0.36300
C2496       C  0.83372769  0.46934808  0.67250153    -0.25700
C2497       C  0.85915763  0.48547988  0.66545314    -0.15000
C2498       C  0.88660735  0.48022926  0.67695281     0.37400
N2499       N  0.91254526  0.49775958  0.67104397    -0.89200
H2500       H  0.90959526  0.45377240  0.70291224     0.18500
H2501       H  0.81264689  0.47336961  0.66366560     0.18500
N2502       N  0.80906329  0.43031630  0.69623191    -0.88300
H2503       H  0.93096014  0.49105908  0.68107222     0.35800
H2504       H  0.90376917  0.01985028  0.67682064     0.40900
H2505       H  0.81237780  0.40817976  0.69072096     0.40600
H2506       H  0.79042442  0.43824349  0.68704143     0.35400
C2507       C  0.86440322  0.45651057  0.80831684    -0.26300
C2508       C  0.88795695  0.43709272  0.80244254    -0.14400
C2509       C  0.91542032  0.43950870  0.81469827     0.36300
C2510       C  0.91864927  0.46140726  0.83236639    -0.25700
C2511       C  0.89488434  0.48040050  0.83833824    -0.15000
C2512       C  0.86763682  0.47822625  0.82601582     0.37400
N2513       N  0.84342449  0.49825990  0.83147234    -0.89200
H2514       H  0.84342192  0.45496669  0.79887817     0.18500
H2515       H  0.93946484  0.46310427  0.84202787     0.18500
N2516       N  0.93961166  0.41927507  0.80967695    -0.88300
H2517       H  0.82487934  0.49369916  0.82086559     0.35800
H2518       H  0.85040550  0.52002454  0.82730682     0.40900
H2519       H  0.93269336  0.39771680  0.81452552     0.40600
H2520       H  0.95822975  0.42431317  0.82007583     0.35400
O2521       O  0.85530966  0.90377335  0.77910004    -0.72900
O2522       O  0.84164417  0.84145384  0.72940707    -0.73900
O2523       O  0.85510026  0.84029756  0.77833273    -0.62500
O2524       O  0.84201374  0.90509030  0.73028303    -0.70900
O2525       O  0.89051807  0.90463485  0.72245391    -0.70500
O2526       O  0.90366526  0.84068025  0.77082829    -0.61700
O2527       O  0.89038364  0.84097198  0.72220250    -0.74200
O2528       O  0.90378317  0.90390132  0.77111591    -0.73000
Cu2529     Cu  0.84679758  0.87263792  0.75455736     1.04600
Cu2530     Cu  0.89872794  0.87254412  0.74631337     1.04300
C2531       C  0.88167919  0.91356313  0.78311328     0.93300
C2532       C  0.86407304  0.83117124  0.71809062     0.92400
C2533       C  0.88145297  0.83051648  0.78246945     0.84600
C2534       C  0.86437529  0.91515231  0.71871843     0.90800
O2535       O  0.63926552  0.84197351  0.77927259    -0.72900
O2536       O  0.65432079  0.90402413  0.72994100    -0.73900
O2537       O  0.64075943  0.90544980  0.77855889    -0.62500
O2538       O  0.65270462  0.84047587  0.73063543    -0.70900
O2539       O  0.60425677  0.84107489  0.72271477    -0.70500
O2540       O  0.59240607  0.90617387  0.77038966    -0.61700
O2541       O  0.60577557  0.90458028  0.72160230    -0.74200
O2542       O  0.59086027  0.84283434  0.77126634    -0.73000
Cu2543     Cu  0.64845416  0.87296694  0.75489675     1.04600
Cu2544     Cu  0.59663984  0.87374620  0.74619676     1.04300
C2545       C  0.61274881  0.83251682  0.78313912     0.93300
C2546       C  0.63234633  0.91390588  0.71794982     0.92400
C2547       C  0.61461030  0.91600957  0.78220948     0.84600
C2548       C  0.63029828  0.83028683  0.71918805     0.90800
O2549       O  0.96959886  0.71858174  0.52133679    -0.72900
O2550       O  0.53494186  0.73490371  0.47259133    -0.73900
O2551       O  0.53420121  0.72128218  0.52135248    -0.62500
O2552       O  0.96962382  0.73313724  0.47285310    -0.70900
O2553       O  0.96884080  0.78148054  0.48190203    -0.70500
O2554       O  0.53376474  0.77005365  0.52898403    -0.61700
O2555       O  0.53344958  0.78357058  0.48019078    -0.74200
O2556       O  0.97057830  0.76700242  0.53069635    -0.73000
Cu2557     Cu  0.00137227  0.72432843  0.49682103     1.04600
Cu2558     Cu  0.00137310  0.77620351  0.50604739     1.04300
C2559       C  0.96044249  0.74051151  0.53384534     0.93300
C2560       C  0.54455031  0.76151440  0.46877926     0.92400
C2561       C  0.54399413  0.74380284  0.53296746     0.84600
C2562       C  0.95898668  0.75946073  0.46974279     0.90800
C2563       C  0.85073965  0.74535450  0.64311711     0.03200
C2564       C  0.82860285  0.72320263  0.64250070    -0.13000
C2565       C  0.82780925  0.70246869  0.62399206     0.00700
C2566       C  0.84957672  0.70365566  0.60623643    -0.11500
C2567       C  0.87173505  0.72599414  0.60656396     0.03100
C2568       C  0.87222937  0.74665102  0.62521074    -0.10900
H2569       H  0.81231052  0.72172644  0.65657962     0.08700
H2570       H  0.84925973  0.68708099  0.59228519     0.06300
H2571       H  0.88916916  0.76404449  0.62571383     0.06100
C2572       C  0.62975002  0.72578915  0.60774407     0.03200
C2573       C  0.65251275  0.70423518  0.60655154    -0.13000
C2574       C  0.67268819  0.70092665  0.62525089     0.00700
C2575       C  0.67037316  0.71966084  0.64505807    -0.11500
C2576       C  0.64827818  0.74197501  0.64600799     0.03100
C2577       C  0.62799708  0.74474268  0.62734206    -0.10900
H2578       H  0.65436834  0.68989260  0.59121158     0.08700
H2579       H  0.68551344  0.71654520  0.65972379     0.06300
H2580       H  0.61068464  0.76173215  0.62808437     0.06100
O2581       O  0.96889267  0.97906382  0.52830318    -0.72900
O2582       O  0.53297981  0.97028250  0.47896682    -0.73900
O2583       O  0.53254779  0.98289738  0.52769928    -0.62500
O2584       O  0.96915469  0.96703134  0.47890551    -0.70900
O2585       O  0.96953201  0.51933140  0.47128245    -0.70500
O2586       O  0.53616786  0.53158850  0.51848612    -0.61700
O2587       O  0.53481108  0.51814520  0.46963085    -0.74200
O2588       O  0.97076564  0.53281980  0.52036260    -0.73000
Cu2589     Cu  0.00076517  0.97059651  0.50400532     1.04600
Cu2590     Cu  0.00197186  0.52776327  0.49526785     1.04300
C2591       C  0.96089923  0.51044253  0.53208650     0.93300
C2592       C  0.54353498  0.99263628  0.46759784     0.92400
C2593       C  0.54617579  0.50898367  0.52982156     0.84600
C2594       C  0.95973718  0.98999411  0.46763625     0.90800
C2595       C  0.63463756  0.51889362  0.60314943     0.03200
C2596       C  0.65600773  0.54177224  0.60427490    -0.13000
C2597       C  0.67451142  0.54449874  0.62403434     0.00700
C2598       C  0.67093294  0.52478227  0.64313508    -0.11500
C2599       C  0.64918500  0.50194417  0.64241615     0.03100
C2600       C  0.62753082  0.99933620  0.62540543    -0.10900
H2601       H  0.65844733  0.55729664  0.58969772     0.08700
H2602       H  0.68488416  0.52756535  0.65856364     0.06300
H2603       H  0.60927442  0.98334717  0.62595074     0.06100
C2604       C  0.87417712  0.52414123  0.60698072     0.03200
C2605       C  0.85113005  0.54541567  0.60648945    -0.13000
C2606       C  0.83053065  0.54706287  0.62509548     0.00700
C2607       C  0.83346966  0.52778060  0.64447671    -0.11500
C2608       C  0.85680716  0.50676829  0.64539714     0.03100
C2609       C  0.87396957  0.00221885  0.62652667    -0.10900
H2610       H  0.84886489  0.56027711  0.59148482     0.08700
H2611       H  0.81769965  0.52935899  0.65890959     0.06300
H2612       H  0.89116988  0.98511150  0.62687890     0.06100
O2613       O  0.71567332  0.76662942  0.97175581    -0.72900
O2614       O  0.77935623  0.77823237  0.02069444    -0.73900
O2615       O  0.77911194  0.76508157  0.97203360    -0.62500
O2616       O  0.71588119  0.77973733  0.02045895    -0.70900
O2617       O  0.71473517  0.73106856  0.02839034    -0.70500
O2618       O  0.77758920  0.71631579  0.97954836    -0.61700
O2619       O  0.77831860  0.72953343  0.02824655    -0.74200
O2620       O  0.71436208  0.71795552  0.97966244    -0.73000
Cu2621     Cu  0.74753268  0.77410507  0.99594046     1.04600
Cu2622     Cu  0.74619420  0.72203619  0.00425610     1.04300
C2623       C  0.70486888  0.74049987  0.96797537     0.93300
C2624       C  0.78923717  0.75557278  0.03208610     0.92400
C2625       C  0.78847778  0.73845209  0.96814533     0.84600
C2626       C  0.70525785  0.75769561  0.03215242     0.90800
C2627       C  0.89568062  0.74437859  0.85805048     0.03200
C2628       C  0.91785962  0.72211927  0.85785934    -0.13000
C2629       C  0.92017594  0.70167374  0.87657031     0.00700
C2630       C  0.90025851  0.70352194  0.89558341    -0.11500
C2631       C  0.87862054  0.72620992  0.89621471     0.03100
C2632       C  0.87661462  0.74663658  0.87754851    -0.10900
H2633       H  0.93293695  0.72026356  0.84299575     0.08700
H2634       H  0.90189885  0.68761926  0.90996992     0.06300
H2635       H  0.85986315  0.76417349  0.87812144     0.06100
C2636       C  0.59900063  0.74422038  0.85667320     0.03200
C2637       C  0.57663916  0.72219823  0.85674547    -0.13000
C2638       C  0.57381416  0.70262334  0.87592418     0.00700
C2639       C  0.59291334  0.70559489  0.89536669    -0.11500
C2640       C  0.61486978  0.72808461  0.89564898     0.03100
C2641       C  0.61811860  0.74689846  0.87606007    -0.10900
H2642       H  0.56183404  0.71990080  0.84175032     0.08700
H2643       H  0.59059021  0.69050385  0.91022570     0.06300
H2644       H  0.63533084  0.76403551  0.87609140     0.06100
O2645       O  0.90519297  0.65873422  0.22925332    -0.72900
O2646       O  0.89519815  0.59378553  0.27782503    -0.73900
O2647       O  0.90669919  0.59526426  0.22876350    -0.62500
O2648       O  0.89389010  0.65753353  0.27835278    -0.70900
O2649       O  0.84508892  0.65653815  0.27185200    -0.70500
O2650       O  0.85789765  0.59413055  0.22214218    -0.61700
O2651       O  0.84645156  0.59293203  0.27126103    -0.74200
O2652       O  0.85638531  0.65782160  0.22280356    -0.73000
Cu2653     Cu  0.90192730  0.62635876  0.25381887     1.04600
Cu2654     Cu  0.84976538  0.62530703  0.24676154     1.04300
C2655       C  0.88222663  0.66862601  0.21836124     0.93300
C2656       C  0.86932943  0.58297432  0.28222188     0.92400
C2657       C  0.88429245  0.58491849  0.21748199     0.84600
C2658       C  0.86758825  0.66700208  0.28298038     0.90800
O2659       O  0.77940442  0.52056094  0.02791148    -0.72900
O2660       O  0.71639644  0.53219692  0.97868841    -0.73900
O2661       O  0.71589549  0.52055622  0.02772697    -0.62500
O2662       O  0.77949395  0.53248623  0.97894857    -0.70900
O2663       O  0.78079697  0.98291846  0.97231274    -0.70500
O2664       O  0.71516768  0.97085954  0.01930192    -0.61700
O2665       O  0.71751576  0.98319526  0.97093476    -0.74200
O2666       O  0.77828117  0.96982714  0.02072782    -0.73000
Cu2667     Cu  0.74777823  0.52814511  0.00357863     1.04600
Cu2668     Cu  0.74795999  0.97504273  0.99554036     1.04300
C2669       C  0.78836624  0.99197311  0.03246696     0.93300
C2670       C  0.70608488  0.50936239  0.96780153     0.92400
C2671       C  0.70443453  0.99341934  0.03026752     0.84600
C2672       C  0.78958302  0.51002471  0.96752412     0.90800
C2673       C  0.60365855  0.50427403  0.85552234     0.03200
C2674       C  0.62093144  0.00210145  0.87606998    -0.13000
C2675       C  0.61983533  0.52311145  0.89367500     0.00700
C2676       C  0.59806008  0.54554889  0.89269833    -0.11500
C2677       C  0.57872255  0.54721089  0.87337154     0.03100
C2678       C  0.58177933  0.52687178  0.85470332    -0.10900
H2679       H  0.63790650  0.98478432  0.87678461     0.08700
H2680       H  0.59585480  0.56139457  0.90706906     0.06300
H2681       H  0.56718284  0.52883770  0.83956483     0.06100
C2682       C  0.88022645  0.52118870  0.89554233     0.03200
C2683       C  0.90163747  0.54416073  0.89452025    -0.13000
C2684       C  0.92186265  0.54557377  0.87561506     0.00700
C2685       C  0.92016913  0.52421767  0.85748941    -0.11500
C2686       C  0.89824039  0.50174739  0.85808411     0.03100
C2687       C  0.87772540  0.99899735  0.87695610    -0.10900
H2688       H  0.90283504  0.56065221  0.90851104     0.08700
H2689       H  0.93543665  0.52554693  0.84270612     0.06300
H2690       H  0.86023617  0.98216173  0.87739194     0.06100
O2691       O  0.65438168  0.59530009  0.26959477    -0.72900
O2692       O  0.63896684  0.65957462  0.22184658    -0.73900
O2693       O  0.65403347  0.65903270  0.27023106    -0.62500
O2694       O  0.63925870  0.59609200  0.22136932    -0.70900
O2695       O  0.59096637  0.59584234  0.22999684    -0.70500
O2696       O  0.60578766  0.65825013  0.27952486    -0.61700
O2697       O  0.59077616  0.65957304  0.23075464    -0.74200
O2698       O  0.60617223  0.59445011  0.27838429    -0.73000
Cu2699     Cu  0.64829801  0.62755618  0.24544658     1.04600
Cu2700     Cu  0.59671963  0.62706325  0.25501691     1.04300
C2701       C  0.63267525  0.58440532  0.28143700     0.93300
C2702       C  0.61257868  0.66968405  0.21853811     0.92400
C2703       C  0.63219113  0.66837677  0.28265919     0.84600
C2704       C  0.61289826  0.58597246  0.21788120     0.90800
C2705       C  0.59855788  0.99774995  0.14201186     0.03200
C2706       C  0.57659437  0.97527708  0.14192305    -0.13000
C2707       C  0.57371355  0.95602770  0.12252803     0.00700
C2708       C  0.59235792  0.95969720  0.10292976    -0.11500
C2709       C  0.61413851  0.98236012  0.10265559     0.03100
C2710       C  0.61918729  0.50119674  0.12458684    -0.10900
H2711       H  0.56211688  0.97237860  0.15705749     0.08700
H2712       H  0.58983284  0.94489003  0.08792504     0.06300
H2713       H  0.63581252  0.51891042  0.12454427     0.06100
C2714       C  0.89396777  0.99604493  0.14312684     0.03200
C2715       C  0.91670531  0.97450201  0.14298515    -0.13000
C2716       C  0.91916439  0.95439214  0.12413868     0.00700
C2717       C  0.89915794  0.95617644  0.10520944    -0.11500
C2718       C  0.87688182  0.97820301  0.10506939     0.03100
C2719       C  0.87713325  0.50055123  0.12417192    -0.10900
H2720       H  0.93216161  0.97306707  0.15763399     0.08700
H2721       H  0.90117466  0.94072104  0.09056219     0.06300
H2722       H  0.85991817  0.51764217  0.12465301     0.06100
C2723       C  0.87757878  0.77326249  0.10557434     0.03200
C2724       C  0.87601853  0.75335279  0.12471754    -0.13000
C2725       C  0.89598949  0.75581851  0.14362640     0.00700
C2726       C  0.91756272  0.77862499  0.14351826    -0.11500
C2727       C  0.91947164  0.79861875  0.12450298     0.03100
C2728       C  0.89946823  0.79589592  0.10555892    -0.10900
H2729       H  0.85917757  0.73584790  0.12493501     0.08700
H2730       H  0.93270380  0.78102809  0.15828597     0.06300
H2731       H  0.90125619  0.81112678  0.09074774     0.06100
C2732       C  0.61639026  0.77323786  0.10502602     0.03200
C2733       C  0.61836413  0.75392224  0.12444709    -0.13000
C2734       C  0.59911830  0.75715889  0.14377467     0.00700
C2735       C  0.57720763  0.77969407  0.14330880    -0.11500
C2736       C  0.57518691  0.79934149  0.12401508     0.03100
C2737       C  0.59495165  0.79616596  0.10500173    -0.10900
H2738       H  0.63511050  0.73636266  0.12457054     0.08700
H2739       H  0.56204427  0.78227520  0.15804925     0.06300
H2740       H  0.59331720  0.81124741  0.09008064     0.06100
C2741       C  0.64791606  0.99432909  0.35459358     0.03200
C2742       C  0.62936772  0.49514728  0.37180872    -0.13000
C2743       C  0.63287194  0.97932129  0.39418828     0.00700
C2744       C  0.65563489  0.95758942  0.39429255    -0.11500
C2745       C  0.67457975  0.95428669  0.37473791     0.03100
C2746       C  0.67090845  0.97296635  0.35506695    -0.10900
H2747       H  0.61214814  0.51223289  0.37174505     0.08700
H2748       H  0.65872848  0.94331345  0.40954698     0.06300
H2749       H  0.68563344  0.97054534  0.34003307     0.06100
C2750       C  0.85367340  0.99641373  0.35522376     0.03200
C2751       C  0.83196435  0.97377342  0.35584878    -0.13000
C2752       C  0.82991039  0.95458143  0.37533409     0.00700
C2753       C  0.84978855  0.95796486  0.39422273    -0.11500
C2754       C  0.87170827  0.98044001  0.39366157     0.03100
C2755       C  0.87273371  0.49698546  0.37536581    -0.10900
H2756       H  0.81686843  0.97083424  0.34111013     0.08700
H2757       H  0.84827737  0.94303782  0.40925076     0.06300
H2758       H  0.88948345  0.51457675  0.37560026     0.06100
C2759       C  0.87059106  0.77241259  0.39596005     0.03200
C2760       C  0.84933308  0.79552545  0.39468083    -0.13000
C2761       C  0.83067259  0.79818065  0.37489831     0.00700
C2762       C  0.83388290  0.77809726  0.35605940    -0.11500
C2763       C  0.85547482  0.75533716  0.35693705     0.03100
C2764       C  0.87326506  0.75229377  0.37708618    -0.10900
H2765       H  0.84692273  0.81112426  0.40919011     0.08700
H2766       H  0.81963718  0.78027271  0.34072251     0.06300
H2767       H  0.88933697  0.73419096  0.37806730     0.06100
C2768       C  0.63302046  0.77411055  0.39461391     0.03200
C2769       C  0.63007149  0.75413591  0.37565575    -0.13000
C2770       C  0.64923449  0.75579574  0.35614944     0.00700
C2771       C  0.67154764  0.77791292  0.35556815    -0.11500
C2772       C  0.67448739  0.79837480  0.37418783     0.03100
C2773       C  0.65512512  0.79648613  0.39364172    -0.10900
H2774       H  0.61249262  0.73738962  0.37592993     0.08700
H2775       H  0.68676070  0.77913897  0.34074833     0.06300
H2776       H  0.65758483  0.81214979  0.40810405     0.06100
N2777       N  0.99698190  0.92355327  0.12623586    -0.36600
N2778       N  0.95093613  0.87678158  0.12409670    -0.57100
N2779       N  0.99699953  0.83131454  0.12560929    -0.36600
N2780       N  0.54319319  0.87742907  0.12250083    -0.57100
C2781       C  0.97254430  0.94015547  0.12123046     0.27000
C2782       C  0.52075947  0.94036443  0.11963295     0.27000
C2783       C  0.97277454  0.81404741  0.12106758     0.27000
C2784       C  0.52189758  0.81412774  0.12018316     0.27000
C2785       C  0.93344833  0.90100069  0.12772310     0.35600
C2786       C  0.93340556  0.85249145  0.12766974     0.35600
C2787       C  0.56058236  0.90195063  0.12548221     0.35600
C2788       C  0.56104845  0.85334291  0.12586608     0.35600
C2789       C  0.98131350  0.96853273  0.11388449    -0.21900
C2790       C  0.51146028  0.96855395  0.11232609    -0.21900
C2791       C  0.98197900  0.78593041  0.11357577    -0.21900
C2792       C  0.51307912  0.78564941  0.11318428    -0.21900
C2793       C  0.90464029  0.89206700  0.13344899    -0.22900
C2794       C  0.90461798  0.86129909  0.13340408    -0.22900
C2795       C  0.58970504  0.89341644  0.13039370    -0.22900
C2796       C  0.58999429  0.86261890  0.13066659    -0.22900
C2797       C  0.94254661  0.93104797  0.12445703    -0.18300
C2798       C  0.55092009  0.93193536  0.12271265    -0.18300
C2799       C  0.55193945  0.82308338  0.12357031    -0.18300
C2800       C  0.94262406  0.82249206  0.12452514    -0.18300
H2801       H  0.96704974  0.98706150  0.10885113     0.14600
H2802       H  0.52534511  0.98739146  0.10728136     0.14600
H2803       H  0.96801105  0.76704141  0.10881334     0.14600
H2804       H  0.52729763  0.76683483  0.10877028     0.14600
H2805       H  0.88555308  0.90622971  0.13709629     0.12900
H2806       H  0.88554549  0.84706438  0.13701173     0.12900
H2807       H  0.60878444  0.90786074  0.13339915     0.12900
H2808       H  0.60934735  0.84867341  0.13392789     0.12900
H2809       H  0.99697596  0.90284145  0.13460376     0.26200
H2810       H  0.99693181  0.85199900  0.13399171     0.26200
N2811       N  0.75246346  0.92237132  0.37406224    -0.36600
N2812       N  0.70647338  0.87626532  0.37430268    -0.57100
N2813       N  0.75270544  0.82997501  0.37184006    -0.36600
N2814       N  0.79874346  0.87616747  0.37535997    -0.57100
C2815       C  0.72804353  0.93953786  0.37804756     0.27000
C2816       C  0.77674796  0.93948954  0.37858567     0.27000
C2817       C  0.72825414  0.81277606  0.37584864     0.27000
C2818       C  0.77702434  0.81272327  0.37607475     0.27000
C2819       C  0.68886262  0.90060742  0.37126956     0.35600
C2820       C  0.68891836  0.85201804  0.37065555     0.35600
C2821       C  0.81641965  0.90060552  0.37304600     0.35600
C2822       C  0.81657562  0.85202759  0.37219406     0.35600
C2823       C  0.73693685  0.96803495  0.38492783    -0.21900
C2824       C  0.76765556  0.96801203  0.38526718    -0.21900
C2825       C  0.73718491  0.78408250  0.38217126    -0.21900
C2826       C  0.76789244  0.78403507  0.38227749    -0.21900
C2827       C  0.65997959  0.89176468  0.36581247    -0.22900
C2828       C  0.66001097  0.86099533  0.36543491    -0.22900
C2829       C  0.84565557  0.89191525  0.36867505    -0.22900
C2830       C  0.84575467  0.86115802  0.36816302    -0.22900
C2831       C  0.69798447  0.93069208  0.37458979    -0.18300
C2832       C  0.80690905  0.93067371  0.37570586    -0.18300
C2833       C  0.80728534  0.82179658  0.37405087    -0.18300
C2834       C  0.69806404  0.82185149  0.37332006    -0.18300
H2835       H  0.72277254  0.98697112  0.38912816     0.14600
H2836       H  0.78170007  0.98694225  0.38979070     0.14600
H2837       H  0.72305241  0.76511082  0.38640799     0.14600
H2838       H  0.78188760  0.76503416  0.38664819     0.14600
H2839       H  0.64080777  0.90598454  0.36260671     0.12900
H2840       H  0.64087174  0.84684944  0.36185168     0.12900
H2841       H  0.86496571  0.90620873  0.36617580     0.12900
H2842       H  0.86513244  0.84713511  0.36520121     0.12900
H2843       H  0.75264266  0.90140088  0.36619178     0.26200
H2844       H  0.75280310  0.85130111  0.36453721     0.26200
N2845       N  0.70524950  0.62298529  0.62279572    -0.36600
N2846       N  0.75197374  0.57726289  0.62493818    -0.57100
N2847       N  0.79707995  0.62414237  0.62256025    -0.36600
N2848       N  0.75051612  0.66982547  0.62392412    -0.57100
C2849       C  0.68850397  0.59829497  0.62709877     0.27000
C2850       C  0.68780454  0.64723564  0.62691629     0.27000
C2851       C  0.81430291  0.60010420  0.62773236     0.27000
C2852       C  0.81348797  0.64889723  0.62731824     0.27000
C2853       C  0.72801755  0.55913836  0.62208201     0.35600
C2854       C  0.77642199  0.55983808  0.62198305     0.35600
C2855       C  0.72612481  0.68722631  0.62082753     0.35600
C2856       C  0.77445986  0.68773544  0.62036468     0.35600
C2857       C  0.65989233  0.60695193  0.63357893    -0.21900
C2858       C  0.65947076  0.63779792  0.63351742    -0.21900
C2859       C  0.84202193  0.60969177  0.63563878    -0.21900
C2860       C  0.84149197  0.64048161  0.63541722    -0.21900
C2861       C  0.73731957  0.53000768  0.61758235    -0.22900
C2862       C  0.76797941  0.53046108  0.61751977    -0.22900
C2863       C  0.73460742  0.71636342  0.61543343    -0.22900
C2864       C  0.76524842  0.71666425  0.61505859    -0.22900
C2865       C  0.69785548  0.56812351  0.62447505    -0.18300
C2866       C  0.69632198  0.67764909  0.62409670    -0.18300
C2867       C  0.80448346  0.67888931  0.62353322    -0.18300
C2868       C  0.80625683  0.56972210  0.62459162    -0.18300
H2869       H  0.64122505  0.59253445  0.63796916     0.14600
H2870       H  0.64041262  0.65167651  0.63785079     0.14600
H2871       H  0.86072659  0.59592776  0.64103557     0.14600
H2872       H  0.85972485  0.65501837  0.64060246     0.14600
H2873       H  0.72348390  0.51040804  0.61473529     0.12900
H2874       H  0.78238889  0.51130501  0.61467302     0.12900
H2875       H  0.72023116  0.73546531  0.61225810     0.12900
H2876       H  0.77913384  0.73607026  0.61158781     0.12900
H2877       H  0.72632993  0.62318069  0.61522908     0.26200
H2878       H  0.77671468  0.62368705  0.61381514     0.26200
N2879       N  0.99800203  0.67044764  0.87498393    -0.36600
N2880       N  0.95258092  0.62395443  0.87594857    -0.57100
N2881       N  0.99921823  0.57839142  0.87187170    -0.36600
N2882       N  0.54458225  0.62386282  0.87429692    -0.57100
C2883       C  0.97356075  0.68715713  0.87983297     0.27000
C2884       C  0.52097193  0.68605857  0.87907245     0.27000
C2885       C  0.97526343  0.56104267  0.87706471     0.27000
C2886       C  0.52503675  0.56016887  0.87686621     0.27000
C2887       C  0.93479902  0.64809850  0.87264057     0.35600
C2888       C  0.93538487  0.59953764  0.87199250     0.35600
C2889       C  0.56128608  0.64880760  0.87123555     0.35600
C2890       C  0.56279619  0.60033478  0.87005330     0.35600
C2891       C  0.98233142  0.71536810  0.88753145    -0.21900
C2892       C  0.51114535  0.71387553  0.88681915    -0.21900
C2893       C  0.98487727  0.53271168  0.88378277    -0.21900
C2894       C  0.51714806  0.53165704  0.88451330    -0.21900
C2895       C  0.90615652  0.63898106  0.86670769    -0.22900
C2896       C  0.90651852  0.60819298  0.86632572    -0.22900
C2897       C  0.59029877  0.64109314  0.86516527    -0.22900
C2898       C  0.59125058  0.61034110  0.86440488    -0.22900
C2899       C  0.94360565  0.67820470  0.87619856    -0.18300
C2900       C  0.55124305  0.67837273  0.87531086    -0.18300
C2901       C  0.55469086  0.56996176  0.87297717    -0.18300
C2902       C  0.94492338  0.56952160  0.87473614    -0.18300
H2903       H  0.96807958  0.73394054  0.89248724     0.14600
H2904       H  0.52469982  0.73301583  0.89170253     0.14600
H2905       H  0.97120600  0.51372566  0.88884582     0.14600
H2906       H  0.53196823  0.51336418  0.88905826     0.14600
H2907       H  0.88695590  0.65303014  0.86316282     0.12900
H2908       H  0.88766073  0.59382373  0.86238402     0.12900
H2909       H  0.60892131  0.65604119  0.86188541     0.12900
H2910       H  0.61075450  0.59688871  0.86047338     0.12900
H2911       H  0.99812548  0.64995473  0.86633770     0.26200
H2912       H  0.99861954  0.59937004  0.86393634     0.26200
C2913       C  0.63250468  0.71028307  0.19297099    -0.26300
C2914       C  0.60778859  0.69321568  0.20035467    -0.14400
C2915       C  0.57958975  0.69851578  0.18983104     0.36300
C2916       C  0.57701845  0.72035674  0.17200842    -0.25700
C2917       C  0.60201074  0.73662197  0.16422910    -0.15000
C2918       C  0.62990624  0.73198605  0.17520083     0.37400
N2919       N  0.65550975  0.74941269  0.16826644    -0.89200
H2920       H  0.65408905  0.70674532  0.20114397     0.18500
H2921       H  0.55564134  0.72390990  0.16349546     0.18500
N2922       N  0.55388177  0.68121193  0.19667200    -0.88300
H2923       H  0.67437612  0.74314172  0.17793894     0.35800
H2924       H  0.65110858  0.77181175  0.17249403     0.40900
H2925       H  0.55767705  0.65901777  0.19150885     0.40600
H2926       H  0.53487846  0.68837940  0.18756179     0.35400
C2927       C  0.57763107  0.53584618  0.17110054    -0.26300
C2928       C  0.60243560  0.51885754  0.16405805    -0.14400
C2929       C  0.63003749  0.52276605  0.17560824     0.36300
C2930       C  0.63266852  0.54465041  0.19319217    -0.25700
C2931       C  0.60820684  0.56251844  0.19976570    -0.15000
C2932       C  0.58021585  0.55783790  0.18874801     0.37400
N2933       N  0.55479261  0.57591335  0.19492371    -0.89200
H2934       H  0.55646738  0.53270574  0.16215891     0.18500
H2935       H  0.65401675  0.54768394  0.20187063     0.18500
N2936       N  0.65527656  0.50442414  0.16942097    -0.88300
H2937       H  0.53590316  0.56917374  0.18546201     0.35800
H2938       H  0.55940880  0.59794455  0.18971251     0.40900
H2939       H  0.64996123  0.48223755  0.17373080     0.40600
H2940       H  0.67396129  0.51021645  0.17949595     0.35400
C2941       C  0.64520166  0.70305795  0.34230940    -0.26300
C2942       C  0.64603397  0.73377406  0.33675196    -0.14400
C2943       C  0.64284430  0.74293865  0.31305894     0.36300
C2944       C  0.63884723  0.72110370  0.29545281    -0.25700
C2945       C  0.63761047  0.69056566  0.30121878    -0.15000
C2946       C  0.64108583  0.68133787  0.32472819     0.37400
N2947       N  0.64017597  0.64995617  0.33060652    -0.89200
H2948       H  0.64782206  0.69603270  0.36046177     0.18500
H2949       H  0.63610354  0.72789239  0.27725480     0.18500
N2950       N  0.64295018  0.77429084  0.30707047    -0.88300
H2951       H  0.64285320  0.64692511  0.34873870     0.35800
H2952       H  0.65849937  0.63966580  0.32253892     0.40900
H2953       H  0.62429487  0.78411675  0.31502341     0.40600
H2954       H  0.64037157  0.77716699  0.28891343     0.35400
C2955       C  0.66979202  0.53045738  0.32480595    -0.26300
C2956       C  0.64513248  0.51353170  0.33230541    -0.14400
C2957       C  0.61694848  0.51857913  0.32191329     0.36300
C2958       C  0.61358466  0.54180724  0.30544079    -0.25700
C2959       C  0.63792947  0.55973804  0.29858734    -0.15000
C2960       C  0.66656466  0.55353831  0.30807433     0.37400
N2961       N  0.69213197  0.57106067  0.30124048    -0.89200
H2962       H  0.69143133  0.52647847  0.33277448     0.18500
H2963       H  0.59175823  0.54579109  0.29781310     0.18500
N2964       N  0.59183980  0.50004826  0.32817229    -0.88300
H2965       H  0.71150686  0.56299187  0.30934343     0.35800
H2966       H  0.68890839  0.59284947  0.30756482     0.40900
H2967       H  0.59665949  0.47815097  0.32277037     0.40600
H2968       H  0.57270459  0.50668315  0.31899128     0.35400
C2969       C  0.83750785  0.95664311  0.07955358    -0.26300
C2970       C  0.85605176  0.98089942  0.08517298    -0.14400
C2971       C  0.85269225  0.51263666  0.07421254     0.36300
C2972       C  0.83030132  0.51521751  0.05702982    -0.25700
C2973       C  0.81186117  0.98711179  0.05031901    -0.15000
C2974       C  0.81549876  0.95930123  0.06208459     0.37400
N2975       N  0.79628169  0.93424645  0.05699042    -0.89200
H2976       H  0.83983018  0.93578308  0.08920597     0.18500
H2977       H  0.82629605  0.53686164  0.04893320     0.18500
N2978       N  0.87027727  0.53836681  0.08069878    -0.88300
H2979       H  0.80020936  0.91664974  0.06877469     0.35800
H2980       H  0.80228387  0.92607214  0.04040531     0.40900
H2981       H  0.89239384  0.53401755  0.07584995     0.40600
H2982       H  0.86355867  0.55731409  0.07121910     0.35400
C2983       C  0.66423027  0.01518745  0.05522114    -0.26300
C2984       C  0.67955965  0.98954080  0.04732836    -0.14400
C2985       C  0.68111496  0.46320311  0.06395214     0.36300
C2986       C  0.65890430  0.46050201  0.08132893    -0.25700
C2987       C  0.63511890  0.98514138  0.08257867    -0.15000
C2988       C  0.64198318  0.01318715  0.07249005     0.37400
N2989       N  0.62621249  0.03967072  0.07955678    -0.89200
H2990       H  0.66954562  0.03707949  0.04802909     0.18500
H2991       H  0.65755464  0.44023303  0.09183410     0.18500
N2992       N  0.70205227  0.43919528  0.06027601    -0.88300
H2993       H  0.61600641  0.04886636  0.06465516     0.35800
H2994       H  0.64182145  0.05520498  0.08582776     0.40900
H2995       H  0.69722858  0.42105330  0.07132921     0.40600
H2996       H  0.72317746  0.44704598  0.06519336     0.35400
C2997       C  0.83852562  0.54298024  0.91890788    -0.26300
C2998       C  0.85864349  0.51937536  0.91518886    -0.14400
C2999       C  0.85519309  0.98991067  0.92788265     0.36300
C3000       C  0.83317389  0.98815122  0.94532285    -0.25700
C3001       C  0.81340449  0.51427681  0.94968469    -0.15000
C3002       C  0.81602228  0.54079134  0.93596749     0.37400
N3003       N  0.79560759  0.56537019  0.93823805    -0.89200
H3004       H  0.83983902  0.56294601  0.90804248     0.18500
H3005       H  0.82958067  0.96684387  0.95409017     0.18500
N3006       N  0.87269913  0.96394855  0.92234536    -0.88300
H3007       H  0.79773224  0.57456316  0.95506903     0.35800
H3008       H  0.77383614  0.55734653  0.93595038     0.40900
H3009       H  0.85815441  0.94682020  0.91713068     0.40600
H3010       H  0.88356244  0.95697886  0.93769372     0.35400
C3011       C  0.68457485  0.53843881  0.93470032    -0.26300
C3012       C  0.68289218  0.51349531  0.94973545    -0.14400
C3013       C  0.66208417  0.99091654  0.94549704     0.36300
C3014       C  0.64035184  0.99483198  0.92807930    -0.25700
C3015       C  0.64060768  0.52124600  0.91365479    -0.15000
C3016       C  0.66384756  0.54235301  0.91657022     0.37400
N3017       N  0.66757381  0.56720967  0.90082283    -0.89200
H3018       H  0.70265415  0.55446674  0.93658246     0.18500
H3019       H  0.62397077  0.97729779  0.92511064     0.18500
N3020       N  0.66179837  0.96422492  0.95958301    -0.88300
H3021       H  0.64848172  0.58064365  0.90165799     0.35800
H3022       H  0.66963556  0.55889446  0.88368765     0.38500
H3023       H  0.66371830  0.94574944  0.94834235     0.40600
H3024       H  0.64111303  0.96287612  0.96808356     0.35400
C3025       C  0.91216386  0.69253505  0.18657787    -0.26300
C3026       C  0.88583018  0.69216275  0.20009113    -0.14400
C3027       C  0.86354692  0.71402602  0.19555337     0.36300
C3028       C  0.86772615  0.73489086  0.17742654    -0.25700
C3029       C  0.89368753  0.73467696  0.16362135    -0.15000
C3030       C  0.91620346  0.71333450  0.16836858     0.37400
N3031       N  0.94280098  0.71148469  0.15439097    -0.89200
H3032       H  0.92942638  0.67596402  0.18972668     0.18500
H3033       H  0.85043331  0.75133148  0.17395334     0.18500
N3034       N  0.83679761  0.71615278  0.20931704    -0.88300
H3035       H  0.95458982  0.73162342  0.15593534     0.35800
H3036       H  0.93663520  0.70860843  0.13678129     0.40900
H3037       H  0.84268460  0.71796932  0.22707468     0.40600
H3038       H  0.82405735  0.69676760  0.20683100     0.35400
C3039       C  0.86499134  0.54243754  0.19375081    -0.26300
C3040       C  0.88868543  0.56200847  0.19897522    -0.14400
C3041       C  0.91584558  0.55945315  0.18632734     0.36300
C3042       C  0.91849939  0.53746711  0.16871424    -0.25700
C3043       C  0.89446684  0.51855740  0.16323246    -0.15000
C3044       C  0.86771370  0.52076201  0.17608316     0.37400
N3045       N  0.84337230  0.50074960  0.17136113    -0.89200
H3046       H  0.84421043  0.54384182  0.20349129     0.18500
H3047       H  0.93898859  0.53576027  0.15862199     0.18500
N3048       N  0.94025043  0.57966153  0.19084233    -0.88300
H3049       H  0.82471015  0.51363817  0.16687143     0.35800
H3050       H  0.83843164  0.48910825  0.18686961     0.40900
H3051       H  0.93334035  0.60118098  0.18591670     0.40600
H3052       H  0.95861444  0.57441974  0.18022663     0.35400
C3053       C  0.88826150  0.70798890  0.30772918    -0.26300
C3054       C  0.86356010  0.69033910  0.30127811    -0.14400
C3055       C  0.83583613  0.69529193  0.31252127     0.36300
C3056       C  0.83366331  0.71689368  0.33040048    -0.25700
C3057       C  0.85861463  0.73383735  0.33725651    -0.15000
C3058       C  0.88605752  0.72973731  0.32532938     0.37400
N3059       N  0.91170960  0.74810124  0.32994772    -0.89200
H3060       H  0.90952587  0.70510796  0.29887950     0.18500
H3061       H  0.81245346  0.72007906  0.33927917     0.18500
N3062       N  0.80997029  0.67810024  0.30626897    -0.88300
H3063       H  0.91921824  0.74427932  0.34706281     0.35800
H3064       H  0.90552756  0.77062419  0.32829369     0.40900
H3065       H  0.79327721  0.69299600  0.30087161     0.40600
H3066       H  0.80238456  0.66695924  0.32133566     0.35400
C3067       C  0.88369217  0.51748330  0.32413165    -0.26300
C3068       C  0.85634723  0.51577014  0.33611087    -0.14400
C3069       C  0.83310612  0.53569852  0.32987830     0.36300
C3070       C  0.83784643  0.55699316  0.31212090    -0.25700
C3071       C  0.86547432  0.55924214  0.30039948    -0.15000
C3072       C  0.88853139  0.53880502  0.30643985     0.37400
N3073       N  0.91688016  0.53861317  0.29472238    -0.89200
H3074       H  0.90160061  0.50219743  0.32873479     0.18500
H3075       H  0.81991584  0.57240176  0.30786371     0.18500
N3076       N  0.80494317  0.53571407  0.34190117    -0.88300
H3077       H  0.92793666  0.55878803  0.29817018     0.35800
H3078       H  0.91329955  0.53648836  0.27660870     0.40900
H3079       H  0.80884984  0.53837762  0.35992705     0.40600
H3080       H  0.79437850  0.51511740  0.33915683     0.35400
C3081       C  0.65535330  0.79418645  0.07840789    -0.26300
C3082       C  0.63749096  0.76979308  0.08515457    -0.14400
C3083       C  0.64103248  0.74201310  0.07372303     0.36300
C3084       C  0.66312041  0.73867442  0.05646173    -0.25700
C3085       C  0.68173821  0.76276217  0.05010489    -0.15000
C3086       C  0.67758684  0.79099264  0.06108520     0.37400
N3087       N  0.69635593  0.81608783  0.05514164    -0.89200
H3088       H  0.65261907  0.81553153  0.08729019     0.18500
H3089       H  0.66557271  0.71707318  0.04791791     0.18500
N3090       N  0.62190146  0.71724325  0.07938819    -0.88300
H3091       H  0.71804604  0.81096208  0.06067322     0.35800
H3092       H  0.68988908  0.83524094  0.06446859     0.40900
H3093       H  0.63530081  0.69937964  0.08493619     0.40600
H3094       H  0.61085566  0.71065251  0.06401541     0.35400
C3095       C  0.81723859  0.78850412  0.05989465    -0.26300
C3096       C  0.81313466  0.75982452  0.05000801    -0.14400
C3097       C  0.83204082  0.73612308  0.05755069     0.36300
C3098       C  0.85328125  0.74133441  0.07514741    -0.25700
C3099       C  0.85648912  0.76967574  0.08558852    -0.15000
C3100       C  0.83858183  0.79356510  0.07758513     0.37400
N3101       N  0.84123115  0.82274674  0.08794771    -0.89200
H3102       H  0.80327158  0.80705439  0.05433769     0.18500
H3103       H  0.86734381  0.72292662  0.08087058     0.18500
N3104       N  0.83076663  0.70665944  0.04751200    -0.88300
H3105       H  0.82044731  0.82866058  0.09495335     0.35800
H3106       H  0.84641457  0.83802319  0.07457559     0.40900
H3107       H  0.83334017  0.70839771  0.02926420     0.40600
H3108       H  0.81008491  0.69698820  0.05142465     0.35400
C3109       C  0.66377654  0.76159488  0.94359566    -0.26300
C3110       C  0.68098933  0.73660863  0.95014127    -0.14400
C3111       C  0.67487021  0.70853069  0.93967787     0.36300
C3112       C  0.65239763  0.70617284  0.92259854    -0.25700
C3113       C  0.63555903  0.73125156  0.91580747    -0.15000
C3114       C  0.64067143  0.75919446  0.92707845     0.37400
N3115       N  0.62277416  0.78541843  0.92254942    -0.89200
H3116       H  0.66776602  0.78317602  0.95181508     0.18500
H3117       H  0.64872538  0.68473467  0.91404861     0.18500
N3118       N  0.69199085  0.68249787  0.94571743    -0.88300
H3119       H  0.61365954  0.79232734  0.93860997     0.35800
H3120       H  0.60438514  0.78042950  0.91198383     0.40900
H3121       H  0.70209570  0.67437682  0.93039261     0.40600
H3122       H  0.67727030  0.66605258  0.95190703     0.35400
C3123       C  0.83213188  0.75757750  0.94597457    -0.26300
C3124       C  0.81245815  0.73371122  0.95059322    -0.14400
C3125       C  0.81580294  0.70644216  0.93805064     0.36300
C3126       C  0.83821011  0.70415733  0.92076984    -0.25700
C3127       C  0.85728127  0.72835744  0.91594045    -0.15000
C3128       C  0.85449418  0.75505985  0.92890753     0.37400
N3129       N  0.87450920  0.77963320  0.92484262    -0.89200
H3130       H  0.83021214  0.77841830  0.95568995     0.18500
H3131       H  0.84037122  0.68369348  0.91060305     0.18500
N3132       N  0.79581903  0.68168107  0.94208721    -0.88300
H3133       H  0.88540208  0.78449114  0.94067295     0.35800
H3134       H  0.86179689  0.79836838  0.92011953     0.40900
H3135       H  0.80094826  0.67271256  0.95860239     0.40600
H3136       H  0.79978396  0.66448874  0.92995829     0.35400
C3137       C  0.91606579  0.01004327  0.44565208    -0.26300
C3138       C  0.93672845  0.98672724  0.44911511    -0.14400
C3139       C  0.93554736  0.96124716  0.43441074     0.36300
C3140       C  0.91389839  0.95955134  0.41660159    -0.25700
C3141       C  0.89352436  0.98299417  0.41304141    -0.15000
C3142       C  0.89447239  0.00838086  0.42789833     0.37400
N3143       N  0.87335717  0.03238113  0.42574019    -0.89200
H3144       H  0.91654692  0.02963585  0.45694944     0.18500
H3145       H  0.91333435  0.94005316  0.40519816     0.18500
N3146       N  0.95908292  0.43971140  0.43724386    -0.88300
H3147       H  0.85183543  0.02341267  0.42717773     0.35800
H3148       H  0.87562869  0.04213467  0.40911711     0.40900
H3149       H  0.97005014  0.43790609  0.42104894     0.40600
H3150       H  0.94891865  0.41908627  0.44087337     0.35400
C3151       C  0.91798858  0.98597484  0.55767161    -0.26300
C3152       C  0.93823466  0.51497404  0.55082404    -0.14400
C3153       C  0.93696697  0.54159542  0.56435992     0.36300
C3154       C  0.91518521  0.54437628  0.58213299    -0.25700
C3155       C  0.89493603  0.52105458  0.58682233    -0.15000
C3156       C  0.89552154  0.98898339  0.57473109     0.37400
N3157       N  0.87672580  0.96339966  0.57934891    -0.89200
H3158       H  0.92084736  0.96437245  0.54920894     0.18500
H3159       H  0.91450283  0.56448047  0.59285809     0.18500
N3160       N  0.95828852  0.56527393  0.56055342    -0.88300
H3161       H  0.86654983  0.95738052  0.56346446     0.35800
H3162       H  0.85914087  0.96873951  0.59063023     0.40900
H3163       H  0.97938787  0.55694988  0.56500634     0.40600
H3164       H  0.95413555  0.58328392  0.57188536     0.35400
C3165       C  0.58496246  0.98867784  0.55499735    -0.26300
C3166       C  0.57019691  0.51285384  0.54739401    -0.14400
C3167       C  0.57340876  0.53959073  0.56045250     0.36300
C3168       C  0.59516043  0.54132734  0.57816276    -0.25700
C3169       C  0.61400227  0.51692489  0.58292692    -0.15000
C3170       C  0.60649804  0.99035349  0.57271547     0.37400
N3171       N  0.62614811  0.96528768  0.57588068    -0.89200
H3172       H  0.58323228  0.96817937  0.54481811     0.18500
H3173       H  0.59681278  0.56156361  0.58867564     0.18500
N3174       N  0.55404166  0.56464140  0.55637839    -0.88300
H3175       H  0.62295342  0.95621854  0.59263089     0.35800
H3176       H  0.64819264  0.97287177  0.57447167     0.40900
H3177       H  0.56729175  0.58318588  0.55206353     0.40600
H3178       H  0.54283203  0.56945379  0.57208183     0.35400
C3179       C  0.58460538  0.51115477  0.43952647    -0.26300
C3180       C  0.56796110  0.98830253  0.45001748    -0.14400
C3181       C  0.57645439  0.95954186  0.44165220     0.36300
C3182       C  0.59821991  0.95719702  0.42387197    -0.25700
C3183       C  0.61223292  0.98270866  0.41453329    -0.15000
C3184       C  0.60653933  0.50806756  0.42200147     0.37400
N3185       N  0.62389436  0.53362447  0.41472306    -0.89200
H3186       H  0.58076363  0.53309155  0.44715719     0.18500
H3187       H  0.60378178  0.93529945  0.41683795     0.18500
N3188       N  0.56255245  0.93279497  0.45065963    -0.88300
H3189       H  0.61743734  0.55283769  0.42397208     0.35800
H3190       H  0.64615705  0.52943326  0.41922319     0.40900
H3191       H  0.56998012  0.92994659  0.46796630     0.40600
H3192       H  0.56983779  0.91386905  0.44142092     0.35400
C3193       C  0.58582637  0.74138621  0.44395609    -0.26300
C3194       C  0.56876406  0.76628134  0.45108335    -0.14400
C3195       C  0.57485423  0.79464114  0.44076164     0.36300
C3196       C  0.59642312  0.79686186  0.42272601    -0.25700
C3197       C  0.61246355  0.77162131  0.41509603    -0.15000
C3198       C  0.60767012  0.74388385  0.42637693     0.37400
N3199       N  0.62522329  0.71818837  0.42018138    -0.89200
H3200       H  0.58224435  0.71966035  0.45206235     0.18500
H3201       H  0.60027333  0.81827949  0.41419951     0.18500
N3202       N  0.55866117  0.82091573  0.44799726    -0.88300
H3203       H  0.61071015  0.70118395  0.41467430     0.35800
H3204       H  0.63626153  0.71073143  0.43531066     0.40900
H3205       H  0.56562923  0.82618798  0.46506904     0.40600
H3206       H  0.56447471  0.83935743  0.43756034     0.35400
C3207       C  0.56879764  0.71110702  0.56249111    -0.26300
C3208       C  0.56684068  0.73925770  0.55147620    -0.14400
C3209       C  0.58596777  0.76268932  0.55887038     0.36300
C3210       C  0.60634766  0.75741053  0.57717730    -0.25700
C3211       C  0.60804955  0.72936144  0.58833267    -0.15000
C3212       C  0.58861818  0.70597612  0.58113455     0.37400
N3213       N  0.58752205  0.67720043  0.59264763    -0.89200
H3214       H  0.55392752  0.69312031  0.55720087     0.18500
H3215       H  0.62118176  0.77528718  0.58276294     0.18500
N3216       N  0.58490258  0.79163581  0.54769075    -0.88300
H3217       H  0.56587223  0.67434158  0.59921572     0.35800
H3218       H  0.60147660  0.67631543  0.60730528     0.40900
H3219       H  0.59188605  0.78885803  0.53025779     0.40600
H3220       H  0.60007260  0.80642331  0.55553943     0.35400
C3221       C  0.90832383  0.73070627  0.54613593    -0.26300
C3222       C  0.93823754  0.73522987  0.55236700    -0.14400
C3223       C  0.94661634  0.73577581  0.57622175     0.36300
C3224       C  0.92463901  0.73194827  0.59360969    -0.25700
C3225       C  0.89441255  0.72809179  0.58753975    -0.15000
C3226       C  0.88614855  0.72765629  0.56350389     0.37400
N3227       N  0.85524928  0.72519678  0.55683724    -0.89200
H3228       H  0.90216537  0.73060782  0.52768081     0.18500
H3229       H  0.93107635  0.73215153  0.61199847     0.18500
N3230       N  0.97735850  0.74049354  0.58262086    -0.88300
H3231       H  0.85303363  0.72531190  0.53851292     0.35800
H3232       H  0.84424845  0.74432745  0.56302463     0.40900
H3233       H  0.98967124  0.72223291  0.57634607     0.40600
H3234       H  0.97977724  0.74054392  0.60092981     0.35400
C3235       C  0.91752216  0.73933419  0.44521620    -0.26300
C3236       C  0.93507132  0.76405751  0.45194507    -0.14400
C3237       C  0.92968611  0.79228636  0.44128959     0.36300
C3238       C  0.90758334  0.79478429  0.42375226    -0.25700
C3239       C  0.89097428  0.76971924  0.41647170    -0.15000
C3240       C  0.89552601  0.74196727  0.42779481     0.37400
N3241       N  0.87760323  0.71642496  0.42181040    -0.89200
H3242       H  0.92083535  0.71769867  0.45353335     0.18500
H3243       H  0.90415050  0.81613609  0.41502509     0.18500
N3244       N  0.94718507  0.81809487  0.44769430    -0.88300
H3245       H  0.86664747  0.70915406  0.43704260     0.35800
H3246       H  0.89186724  0.69924699  0.41626706     0.40900
H3247       H  0.96915366  0.81412411  0.44225228     0.40600
H3248       H  0.93993278  0.83712562  0.43856549     0.35400
C3249       C  0.61780647  0.76376318  0.67814017    -0.26300
C3250       C  0.64538298  0.76239915  0.66643622    -0.14400
C3251       C  0.66821263  0.78279179  0.67275059     0.36300
C3252       C  0.66283473  0.80417991  0.69027450    -0.25700
C3253       C  0.63488918  0.80625737  0.70148601    -0.15000
C3254       C  0.61220993  0.78542399  0.69537399     0.37400
N3255       N  0.58339689  0.78537387  0.70638133    -0.89200
H3256       H  0.60013228  0.74825033  0.67338440     0.18500
H3257       H  0.68043327  0.81996927  0.69459460     0.18500
N3258       N  0.69647814  0.78339717  0.66089665    -0.88300
H3259       H  0.57237614  0.80534655  0.70225050     0.35800
H3260       H  0.58624167  0.78384385  0.72461251     0.40900
H3261       H  0.69272290  0.78587641  0.64283427     0.40600
H3262       H  0.70747763  0.76309371  0.66383088     0.35400
C3263       C  0.63232304  0.79121681  0.80782433    -0.26300
C3264       C  0.60788252  0.80916690  0.80128163    -0.14400
C3265       C  0.57993742  0.80453748  0.81255596     0.36300
C3266       C  0.57735649  0.78261482  0.83004994    -0.25700
C3267       C  0.60200043  0.76523962  0.83675942    -0.15000
C3268       C  0.62959193  0.76935172  0.82534443     0.37400
N3269       N  0.65483739  0.75114884  0.83137062    -0.89200
H3270       H  0.65379549  0.79405117  0.79927327     0.18500
H3271       H  0.55612540  0.77971085  0.83896765     0.18500
N3272       N  0.55407871  0.82227626  0.80737005    -0.88300
H3273       H  0.67210345  0.76535243  0.83683559     0.35800
H3274       H  0.66192633  0.73999186  0.81617504     0.40900
H3275       H  0.54785077  0.81863264  0.78987871     0.40600
H3276       H  0.55935772  0.84492332  0.80982227     0.35400
C3277       C  0.63542958  0.95553235  0.80840405    -0.26300
C3278       C  0.61030313  0.93956772  0.80039463    -0.14400
C3279       C  0.58199987  0.94574541  0.81051949     0.36300
C3280       C  0.57982698  0.96695016  0.82875117    -0.25700
C3281       C  0.60504795  0.98249406  0.83684252    -0.15000
C3282       C  0.63300763  0.97699666  0.82629770     0.37400
N3283       N  0.65893816  0.99355610  0.83341615    -0.89200
H3284       H  0.65719934  0.95148956  0.80067345     0.18500
H3285       H  0.55833917  0.97114187  0.83691387     0.18500
N3286       N  0.55567133  0.93004357  0.80283410    -0.88300
H3287       H  0.67508134  0.97824737  0.83913188     0.35800
H3288       H  0.66740931  0.00473692  0.81866459     0.40900
H3289       H  0.55048540  0.93789408  0.78597852     0.40600
H3290       H  0.53734850  0.93552181  0.81341985     0.35400
C3291       C  0.63904559  0.96637554  0.70494434    -0.26300
C3292       C  0.63773753  0.93582542  0.69930589    -0.14400
C3293       C  0.64076517  0.92635983  0.67583183     0.36300
C3294       C  0.64445421  0.94793267  0.65810598    -0.25700
C3295       C  0.64532682  0.97865505  0.66355189    -0.15000
C3296       C  0.64266297  0.98804769  0.68719838     0.37400
N3297       N  0.59003232  0.48474255  0.66024795    -0.89200
H3298       H  0.63661072  0.97328921  0.72313907     0.18500
H3299       H  0.64663162  0.94082250  0.63993907     0.18500
N3300       N  0.63969324  0.89492533  0.67014414    -0.88300
H3301       H  0.57788510  0.49452524  0.67396721     0.35800
H3302       H  0.57699501  0.46758374  0.65300707     0.40900
H3303       H  0.65814970  0.88464863  0.67803738     0.40600
H3304       H  0.64200173  0.89174545  0.65199659     0.35400
C3305       C  0.91726570  0.78057325  0.82915962    -0.26300
C3306       C  0.89221037  0.76531205  0.83794986    -0.14400
C3307       C  0.86398427  0.77067030  0.82776246     0.36300
C3308       C  0.86112802  0.79172579  0.80960668    -0.25700
C3309       C  0.88602892  0.80753732  0.80104875    -0.15000
C3310       C  0.91446780  0.80160067  0.81088427     0.37400
N3311       N  0.94049162  0.81733029  0.80288346    -0.89200
H3312       H  0.93906239  0.77670173  0.83689878     0.18500
H3313       H  0.83918368  0.79558706  0.80214215     0.18500
N3314       N  0.83817755  0.75437573  0.83552143    -0.88300
H3315       H  0.95604088  0.80149011  0.79704085     0.35800
H3316       H  0.94978568  0.82868755  0.81723133     0.40900
H3317       H  0.82929150  0.74291712  0.82106734     0.40600
H3318       H  0.82224279  0.76987476  0.84128476     0.35400
C3319       C  0.83428776  0.80908411  0.68541502    -0.26300
C3320       C  0.85968614  0.80799150  0.69990989    -0.14400
C3321       C  0.88119919  0.78537947  0.69627474     0.36300
C3322       C  0.87749124  0.76487230  0.67786178    -0.25700
C3323       C  0.85255856  0.76643032  0.66302417    -0.15000
C3324       C  0.83065496  0.78869962  0.66688872     0.37400
N3325       N  0.80530202  0.79191744  0.65169378    -0.89200
H3326       H  0.81771235  0.82650348  0.68797832     0.18500
H3327       H  0.89426080  0.74769630  0.67504496     0.18500
N3328       N  0.90663456  0.78290156  0.71146008    -0.88300
H3329       H  0.79258485  0.77227776  0.65245833     0.35800
H3330       H  0.81297024  0.79475012  0.63444387     0.40900
H3331       H  0.92589735  0.78457379  0.70111863     0.40600
H3332       H  0.90632653  0.76157964  0.71915082     0.35400
C3333       C  0.88527906  0.95710100  0.69507255    -0.26300
C3334       C  0.86045228  0.93925490  0.70094175    -0.14400
C3335       C  0.83285381  0.94452016  0.68949825     0.36300
C3336       C  0.83104677  0.96696308  0.67212694    -0.25700
C3337       C  0.85622214  0.98391730  0.66573548    -0.15000
C3338       C  0.88341170  0.97946502  0.67774351     0.37400
N3339       N  0.90900384  0.99772779  0.67229515    -0.89200
H3340       H  0.90633142  0.95363916  0.70408549     0.18500
H3341       H  0.81018073  0.97045536  0.66284297     0.18500
N3342       N  0.80704177  0.92656312  0.69493050    -0.88300
H3343       H  0.92730672  0.99153450  0.68264706     0.35800
H3344       H  0.90806522  0.52002807  0.67563237     0.40900
H3345       H  0.81154252  0.90462383  0.68945387     0.40600
H3346       H  0.78851237  0.93375617  0.68524521     0.35400
C3347       C  0.86212467  0.95416472  0.80870410    -0.26300
C3348       C  0.88639510  0.93625730  0.80177163    -0.14400
C3349       C  0.91442622  0.94018325  0.81290651     0.36300
C3350       C  0.91744354  0.96197499  0.83059524    -0.25700
C3351       C  0.89303652  0.97946281  0.83767098    -0.15000
C3352       C  0.86517615  0.97583071  0.82643057     0.37400
N3353       N  0.84018687  0.99433465  0.83293806    -0.89200
H3354       H  0.84068543  0.95147098  0.80009801     0.18500
H3355       H  0.93872559  0.96473306  0.83944379     0.18500
N3356       N  0.93950404  0.92161745  0.80673003    -0.88300
H3357       H  0.82128684  0.98871982  0.82305163     0.35800
H3358       H  0.84558652  0.01650201  0.82863491     0.40900
H3359       H  0.93437220  0.89963636  0.81178063     0.40600
H3360       H  0.95848277  0.92783370  0.81630152     0.35400
loop_ 
_geom_bond_atom_site_label_1 
_geom_bond_atom_site_label_2 
_geom_bond_distance 
_geom_bond_site_symmetry_2 
_ccdc_geom_bond_type 
O1           Cu9   2.004       .  S
O1           C11   1.278       .  A
O2           Cu9   2.003       .  S
O2           C12   1.277       .  A
O3           Cu9   2.021       .  S
O3           C13   1.280       .  A
O4           Cu9   2.019       .  S
O4           C14   1.279       .  A
O5          Cu10   2.006       .  S
O5           C14   1.278       .  A
O6          Cu10   2.008       .  S
O6           C13   1.277       .  A
O7          Cu10   1.992       .  S
O7           C12   1.276       .  A
O8          Cu10   1.992       .  S
O8           C11   1.275       .  A
Cu9         Cu10   2.368       .  S
C11         C828   1.479       .  S
C12         C800   1.478       .  S
C13         C789   1.490       .  S
C14         C814   1.491       .  S
O15         Cu23   2.007       .  S
O15          C25   1.279       .  A
O16         Cu23   2.006       .  S
O16          C26   1.277       .  A
O17         Cu23   2.009       .  S
O17          C27   1.279       .  A
O18         Cu23   2.009       .  S
O18          C28   1.278       .  A
O19         Cu24   2.001       .  S
O19          C28   1.277       .  A
O20         Cu24   2.002       .  S
O20          C27   1.276       .  A
O21         Cu24   1.999       .  S
O21          C26   1.278       .  A
O22         Cu24   1.998       .  S
O22          C25   1.275       .  A
Cu23        Cu24   2.367       .  S
C25         C744   1.483       .  S
C26         C772   1.482       .  S
C27         C758   1.488       .  S
C28         C733   1.482       .  S
O29         Cu37   2.003       .  S
O29          C39   1.276       .  A
O30       Cu1717   2.018       .  S
O30          C40   1.280       .  A
O31       Cu1717   2.006       .  S
O31          C41   1.277       .  A
O32         Cu37   2.009       .  S
O32          C42   1.278       .  A
O33         Cu38   2.010       .  S
O33          C42   1.278       .  A
O34       Cu1718   2.013   1_455  S
O34          C41   1.279       .  A
O35       Cu1718   2.014   1_455  S
O35          C40   1.278       .  A
O36         Cu38   1.999       .  S
O36          C39   1.276       .  A
Cu37       O1710   2.012       .  S
Cu37       O1711   2.011       .  S
Cu37        Cu38   2.373       .  S
Cu38       O1714   2.007       .  S
Cu38       O1715   1.998       .  S
C39         C702   1.462       .  S
C40         C674   1.490       .  S
C41         C688   1.480       .  S
C42         C716   1.481       .  S
C43         C803   1.475       .  S
C43          C44   1.401       .  A
C43          C48   1.400       .  A
C44          C45   1.402       .  A
C44          H49   1.083       .  S
C45         C347   1.482       .  S
C45          C46   1.403       .  A
C46          C47   1.404       .  A
C46          H50   1.084       .  S
C47         C705   1.481       .  S
C47          C48   1.400       .  A
C48          H51   1.084       .  S
C52         C691   1.477       .  S
C52          C53   1.403       .  A
C52          C57   1.399       .  A
C53          C54   1.404       .  A
C53          H58   1.084       .  S
C54         C346   1.483       .  S
C54          C55   1.405       .  A
C55          C56   1.401       .  A
C55          H59   1.083       .  S
C56         C730   1.479       .  S
C56          C57   1.402       .  A
C57          H60   1.085       .  S
O61         Cu69   2.013       .  S
O61         C911   1.279       .  A
O62       Cu1749   2.012       .  S
O62          C72   1.278       .  A
O63       Cu1749   2.006       .  S
O63         C913   1.278       .  A
O64         Cu69   2.001       .  S
O64          C74   1.277       .  A
O65         Cu70   2.019       .  S
O65         C914   1.280   1_545  A
O66       Cu1750   2.006       .  S
O66          C73   1.277       .  A
O67       Cu1750   2.012       .  S
O67         C912   1.280   1_545  A
O68         Cu70   2.009       .  S
O68          C71   1.278       .  A
Cu69       O1742   2.006       .  S
Cu69       O1743   2.002       .  S
Cu69       Cu910   2.369       .  S
Cu70       O1746   2.010       .  S
Cu70       O1747   2.017       .  S
Cu70       Cu909   2.369   1_545  S
C71         O901   1.279   1_545  A
C71         C632   1.483       .  S
C72         O907   1.280       .  A
C72         C660   1.490       .  S
C73         O903   1.280   1_545  A
C73         C646   1.484       .  S
C74         O905   1.278       .  A
C74         C618   1.477       .  S
C75         C649   1.483       .  S
C75          C76   1.405       .  A
C75         C920   1.400   1_545  A
C76          C77   1.408       .  A
C76          H81   1.084       .  S
C77         C345   1.489       .  S
C77          C78   1.405       .  A
C78          C79   1.404   1_545  A
C78          H82   1.084       .  S
C79        C1615   1.480       .  S
C79         C920   1.401       .  A
C80         C915   1.401       .  A
C80         C919   1.403       .  A
C80          H83   1.084       .  S
C84         C635   1.479       .  S
C84          C85   1.402       .  A
C84         C929   1.402       .  A
C85          C86   1.404       .  A
C85          H90   1.084       .  S
C86         C348   1.483       .  S
C86          C87   1.402       .  A
C87          C88   1.402       .  A
C87          H91   1.084       .  S
C88        C1657   1.479   1_545  S
C88         C929   1.404       .  A
C89         C924   1.405       .  A
C89         C928   1.406       .  A
C89          H92   1.083       .  S
O93        Cu101   2.003       .  S
O93         C103   1.278       .  A
O94        Cu101   2.005   1_554  S
O94         C104   1.278       .  A
O95        Cu101   2.003       .  S
O95         C105   1.278       .  A
O96        Cu101   1.999   1_554  S
O96         C106   1.276       .  A
O97        Cu102   2.017       .  S
O97         C106   1.279       .  A
O98        Cu102   2.015   1_556  S
O98         C105   1.279       .  A
O99        Cu102   2.012       .  S
O99         C104   1.278       .  A
O100       Cu102   2.006   1_556  S
O100        C103   1.277       .  A
Cu101      Cu102   2.367   1_556  S
C103        C590   1.482       .  S
C104        C576   1.489       .  S
C105        C604   1.487       .  S
C106        C565   1.486       .  S
C107        C786   1.485       .  S
C107        C108   1.404       .  A
C107        C112   1.402       .  A
C108        C109   1.405       .  A
C108        H113   1.084       .  S
C109        C379   1.488       .  S
C109        C110   1.406       .  A
C110        C111   1.406       .  A
C110        H114   1.084       .  S
C111        C607   1.485       .  S
C111        C112   1.403       .  A
C112        H115   1.083       .  S
C116        C747   1.476       .  S
C116        C117   1.400       .  A
C116        C121   1.401       .  A
C117        C118   1.401       .  A
C117        H122   1.084       .  S
C118        C380   1.479       .  S
C118        C119   1.402       .  A
C119        C120   1.403       .  A
C119        H123   1.084       .  S
C120        C593   1.478       .  S
C120        C121   1.401       .  A
C121        H124   1.084       .  S
O125       Cu133   2.007       .  S
O125        C135   1.278       .  A
O126       Cu133   2.012       .  S
O126        C136   1.278       .  A
O127       Cu133   2.007       .  S
O127        C137   1.278       .  A
O128       Cu133   2.012       .  S
O128        C138   1.279       .  A
O129       Cu134   2.004       .  S
O129        C138   1.277       .  A
O130       Cu134   2.008       .  S
O130        C137   1.278       .  A
O131       Cu134   2.007       .  S
O131        C136   1.278       .  A
O132       Cu134   2.009       .  S
O132        C135   1.278       .  A
Cu133      Cu134   2.370       .  S
C135        C506   1.483       .  S
C136        C551   1.483       .  S
C137        C520   1.480       .  S
C138        C534   1.482       .  S
O139       Cu147   2.000       .  S
O139        C989   1.278   1_545  A
O140       Cu147   2.002   1_556  S
O140        C150   1.276       .  A
O141       Cu147   2.010       .  S
O141        C991   1.279   1_545  A
O142       Cu147   2.002   1_556  S
O142        C152   1.276       .  A
O143       Cu148   2.006       .  S
O143        C992   1.279       .  A
O144       Cu148   2.008   1_554  S
O144        C151   1.277       .  A
O145       Cu148   2.009       .  S
O145        C990   1.278       .  A
O146       Cu148   2.006   1_554  S
O146        C149   1.277       .  A
Cu147      Cu988   2.370   1_544  S
Cu148      Cu987   2.369   1_556  S
C149        O979   1.278       .  A
C149        C453   1.485       .  S
C150        O985   1.278   1_545  A
C150        C492   1.475       .  S
C151        O981   1.278       .  A
C151        C464   1.486       .  S
C152        O983   1.279   1_545  A
C152        C481   1.485       .  S
C153       C1601   1.481   1_545  S
C153        C158   1.404       .  A
C153        C994   1.402       .  A
C154        C993   1.403       .  A
C154        C995   1.399       .  A
C154        H159   1.083       .  S
C155        C495   1.473       .  S
C155        C156   1.401       .  A
C155        C994   1.399       .  A
C156        C157   1.404       .  A
C156        H160   1.084       .  S
C157        C381   1.483       .  S
C157        C158   1.403       .  A
C158        H161   1.084       .  S
C162        C478   1.480       .  S
C162        C163   1.402       .  A
C162       C1007   1.401   1_545  A
C163        C164   1.403       .  A
C163        H168   1.084       .  S
C164        C382   1.485       .  S
C164        C165   1.404       .  A
C165        C166   1.404       .  A
C165        H169   1.084       .  S
C166       C1671   1.484   1_545  S
C166       C1007   1.403   1_545  A
C167       C1002   1.398       .  A
C167       C1006   1.400       .  A
C167        H170   1.084       .  S
O171       Cu179   2.008       .  S
O171        C181   1.278       .  A
O172       Cu179   2.006       .  S
O172        C182   1.279       .  A
O173       Cu179   2.012       .  S
O173        C183   1.277       .  A
O174       Cu179   2.012       .  S
O174        C184   1.279       .  A
O175       Cu180   2.017       .  S
O175        C184   1.278       .  A
O176       Cu180   2.015       .  S
O176        C183   1.278       .  A
O177       Cu180   2.004       .  S
O177        C182   1.277       .  A
O178       Cu180   2.001       .  S
O178        C181   1.278       .  A
Cu179      Cu180   2.371       .  S
C181        C439   1.484       .  S
C182        C394   1.484       .  S
C183        C425   1.471       .  S
C184        C411   1.489       .  S
C185       C1248   1.481       .  S
C185        C186   1.403       .  A
C185       C1030   1.403       .  A
C186        C187   1.405       .  A
C186        H191   1.084       .  S
C187        C278   1.484       .  S
C187        C188   1.403       .  A
C188        C189   1.403       .  A
C188        H192   1.084       .  S
C189        C467   1.481       .  S
C189       C1030   1.403       .  A
C190       C1025   1.404       .  A
C190       C1029   1.404       .  A
C190        H193   1.084   1_565  S
C194       C1363   1.480       .  S
C194        C195   1.403       .  A
C194       C1039   1.401       .  A
C195        C196   1.405       .  A
C195        H200   1.084       .  S
C196        C277   1.486       .  S
C196        C197   1.403       .  A
C197        C198   1.404       .  A
C197        H201   1.084       .  S
C198        C450   1.484       .  S
C198       C1039   1.403       .  A
C199       C1034   1.400       .  A
C199       C1038   1.401       .  A
C199        H202   1.084   1_565  S
C203        C579   1.484       .  S
C203        C204   1.401       .  A
C203        C208   1.407       .  A
C204        C205   1.399       .  A
C204        H209   1.084       .  S
C205        C509   1.478       .  S
C205        C206   1.402       .  A
C206        C207   1.405       .  A
C206        H210   1.084       .  S
C207        C280   1.489       .  S
C207        C208   1.407       .  A
C208        H211   1.083       .  S
C212        C562   1.481       .  S
C212        C213   1.402       .  A
C212        C217   1.404       .  A
C213        C214   1.402       .  A
C213        H218   1.084       .  S
C214        C397   1.478       .  S
C214        C215   1.401       .  A
C215        C216   1.402       .  A
C215        H219   1.084       .  S
C216        C279   1.481       .  S
C216        C217   1.403       .  A
C217        H220   1.084       .  S
C221       C1276   1.490       .  S
C221        C226   1.406       .  A
C221       C1062   1.405       .  A
C222       C1061   1.403       .  A
C222       C1063   1.404       .  A
C222        H227   1.083   1_565  S
C223        C663   1.488       .  S
C223        C224   1.404       .  A
C223       C1062   1.404       .  A
C224        C225   1.404       .  A
C224        H228   1.084       .  S
C225        C311   1.489       .  S
C225        C226   1.408       .  A
C226        H229   1.084       .  S
C230       C1388   1.470       .  S
C230        C231   1.399       .  A
C230       C1075   1.398       .  A
C231        C232   1.402       .  A
C231        H236   1.084       .  S
C232        C312   1.481       .  S
C232        C233   1.403       .  A
C233        C234   1.402       .  A
C233        H237   1.084       .  S
C234        C621   1.475       .  S
C234       C1075   1.400       .  A
C235       C1070   1.402       .  A
C235       C1074   1.403       .  A
C235        H238   1.084   1_565  S
C239        C719   1.478       .  S
C239        C240   1.404       .  A
C239        C244   1.401       .  A
C240        C241   1.407       .  A
C240        H245   1.084       .  S
C241        C313   1.488       .  S
C241        C242   1.404       .  A
C242        C243   1.403       .  A
C242        H246   1.084       .  S
C243        C537   1.477       .  S
C243        C244   1.400       .  A
C244        H247   1.084       .  S
C248        C677   1.487       .  S
C248        C249   1.404       .  A
C248        C253   1.405       .  A
C249        C250   1.403       .  A
C249        H254   1.084       .  S
C250        C422   1.488       .  S
C250        C251   1.405       .  A
C251        C252   1.405       .  A
C251        H255   1.084       .  S
C252        C314   1.490       .  S
C252        C253   1.407       .  A
C253        H256   1.084       .  S
N257        H289   1.038       .  S
N257        C261   1.353       .  A
N257       C1942   1.352       .  A
N258        C265   1.353       .  A
N258        C266   1.353       .  A
N259        H290   1.037       .  S
N259        C263   1.354       .  A
N259       C1944   1.355       .  A
N260        C267   1.352       .  A
N260        C268   1.351       .  A
C261        C269   1.387       .  A
C261        C277   1.413       .  A
C262        C278   1.414       .  A
C262        C270   1.387       .  A
C262       N1937   1.353   1_455  A
C263        C271   1.387       .  A
C263        C280   1.418       .  A
C264        C279   1.414       .  A
C264        C272   1.387       .  A
C264       N1939   1.352   1_455  A
C265        C277   1.416       .  A
C265        C273   1.386       .  A
C266        C280   1.416       .  A
C266        C274   1.387       .  A
C267        C275   1.387       .  A
C267        C278   1.414       .  A
C268        C276   1.386       .  A
C268        C279   1.413       .  A
C269       C1950   1.375       .  A
C269        H281   1.082       .  S
C270       C1949   1.375   1_455  A
C270        H282   1.082       .  S
C271       C1952   1.376       .  A
C271        H283   1.082       .  S
C272       C1951   1.373   1_455  A
C272        H284   1.082       .  S
C273        C274   1.373       .  A
C273        H285   1.082       .  S
C274        H286   1.082       .  S
C275        C276   1.373       .  A
C275        H287   1.082       .  S
C276        H288   1.082       .  S
N291        H323   1.037       .  S
N291        C296   1.352       .  A
N291        C295   1.354       .  A
N292        C299   1.354       .  A
N292        C300   1.353       .  A
N293        H324   1.037       .  S
N293        C298   1.356       .  A
N293        C297   1.355       .  A
N294        C301   1.352       .  A
N294        C302   1.352       .  A
C295        C303   1.387       .  A
C295        C311   1.414       .  A
C296        C312   1.414       .  A
C296        C304   1.388       .  A
C297        C305   1.388       .  A
C297        C314   1.420       .  A
C298        C313   1.419       .  A
C298        C306   1.387       .  A
C299        C311   1.416       .  A
C299        C307   1.386       .  A
C300        C314   1.417       .  A
C300        C308   1.387       .  A
C301        C309   1.386       .  A
C301        C312   1.413       .  A
C302        C310   1.387       .  A
C302        C313   1.414       .  A
C303        C304   1.373       .  A
C303        H315   1.082       .  S
C304        H316   1.083       .  S
C305        C306   1.376       .  A
C305        H317   1.082       .  S
C306        H318   1.082       .  S
C307        C308   1.373       .  A
C307        H319   1.082       .  S
C308        H320   1.082       .  S
C309        C310   1.371       .  A
C309        H321   1.082       .  S
C310        H322   1.082       .  S
N325        H357   1.038       .  S
N325        C330   1.354       .  A
N325        C329   1.354       .  A
N326        C333   1.353       .  A
N326        C334   1.353       .  A
N327        H358   1.038       .  S
N327        C332   1.353       .  A
N327        C331   1.352       .  A
N328        C335   1.350       .  A
N328        C336   1.351       .  A
C329        C337   1.387       .  A
C329        C345   1.416       .  A
C330        C346   1.416       .  A
C330        C338   1.387       .  A
C331        C339   1.388       .  A
C331        C348   1.413       .  A
C332        C347   1.413       .  A
C332        C340   1.387       .  A
C333        C345   1.415       .  A
C333        C341   1.386       .  A
C334        C348   1.415       .  A
C334        C342   1.387       .  A
C335        C343   1.387       .  A
C335        C346   1.413       .  A
C336        C344   1.386       .  A
C336        C347   1.412       .  A
C337        C338   1.375       .  A
C337        H349   1.082       .  S
C338        H350   1.082       .  S
C339        C340   1.375       .  A
C339        H351   1.082       .  S
C340        H352   1.082       .  S
C341        C342   1.373       .  A
C341        H353   1.082       .  S
C342        H354   1.082       .  S
C343        C344   1.371       .  A
C343        H355   1.082       .  S
C344        H356   1.082       .  S
N359        H391   1.036       .  S
N359        C363   1.354       .  A
N359       C2044   1.353       .  A
N360        C367   1.353       .  A
N360        C368   1.353       .  A
N361        H392   1.037       .  S
N361        C365   1.353       .  A
N361       C2046   1.353       .  A
N362        C369   1.351       .  A
N362        C370   1.351       .  A
C363        C371   1.387       .  A
C363        C379   1.417       .  A
C364        C380   1.412       .  A
C364        C372   1.387       .  A
C364       N2039   1.352   1_455  A
C365        C373   1.387       .  A
C365        C382   1.415       .  A
C366        C381   1.415       .  A
C366        C374   1.387       .  A
C366       N2041   1.353   1_455  A
C367        C379   1.415       .  A
C367        C375   1.386       .  A
C368        C382   1.415       .  A
C368        C376   1.386       .  A
C369        C377   1.386       .  A
C369        C380   1.411       .  A
C370        C378   1.387       .  A
C370        C381   1.412       .  A
C371       C2052   1.375       .  A
C371        H383   1.082       .  S
C372       C2051   1.374   1_455  A
C372        H384   1.082       .  S
C373       C2054   1.374       .  A
C373        H385   1.082       .  S
C374       C2053   1.375   1_455  A
C374        H386   1.082       .  S
C375        C376   1.372       .  A
C375        H387   1.082       .  S
C376        H388   1.082       .  S
C377        C378   1.371       .  A
C377        H389   1.082       .  S
C378        H390   1.082       .  S
C393        C394   1.406       .  A
C393        C398   1.403       .  A
C393        H400   1.083       .  S
C394        C395   1.417       .  A
C395        C396   1.405       .  A
C395        N402   1.438       .  S
C396        C397   1.401       .  A
C396        H401   1.084       .  S
C397        C398   1.409       .  A
C398        N399   1.438       .  S
N399        H403   1.046       .  S
N399        H404   1.046       .  S
N402        H405   1.046       .  S
N402        H406   1.046       .  S
C407        C408   1.403       .  A
C407        C412   1.410       .  A
C407        H414   1.084       .  S
C408       C1025   1.486   1_545  S
C408        C409   1.411       .  A
C409        C410   1.405       .  A
C409        N416   1.438       .  S
C410        C411   1.405       .  A
C410        H415   1.083       .  S
C411        C412   1.416       .  A
C412        N413   1.438       .  S
N413        H417   1.046       .  S
N413        H418   1.046       .  S
N416        H419   1.046   1_545  S
N416        H420   1.046       .  S
C421        C422   1.407       .  A
C421        C426   1.406       .  A
C421        H428   1.084       .  S
C422        C423   1.414       .  A
C423        C424   1.408       .  A
C423        N430   1.438       .  S
C424        C425   1.401       .  A
C424        H429   1.084       .  S
C425        C426   1.407       .  A
C426        N427   1.438       .  S
N427        H431   1.046       .  S
N427        H432   1.046       .  S
N430        H433   1.046       .  S
N430        H434   1.046       .  S
C435        C436   1.404       .  A
C435        C440   1.406       .  A
C435        H442   1.084       .  S
C436       C1061   1.484   1_545  S
C436        C437   1.411       .  A
C437        C438   1.402       .  A
C437        N444   1.438       .  S
C438        C439   1.406       .  A
C438        H443   1.083       .  S
C439        C440   1.415       .  A
C440        N441   1.438       .  S
N441        H445   1.046       .  S
N441        H446   1.046       .  S
N444        H447   1.045   1_545  S
N444        H448   1.046       .  S
C449        C450   1.403       .  A
C449        C454   1.402       .  A
C449        H456   1.084       .  S
C450       C1291   1.413       .  A
C451        C452   1.401       .  A
C451       C1290   1.408   1_545  A
C451        N458   1.438       .  S
C452       C1293   1.404   1_545  A
C452        H457   1.084       .  S
C453        C454   1.413       .  A
C453       C1292   1.406       .  A
C454        N455   1.432       .  S
N455        H459   1.046       .  S
N455        H460   1.046       .  S
N458        H461   1.046       .  S
N458        H462   1.046       .  S
C463        C464   1.406       .  A
C463        C468   1.400       .  A
C463        H470   1.084       .  S
C464       C1305   1.418       .  A
C465        C466   1.409       .  A
C465       C1304   1.419       .  A
C465        N472   1.438       .  S
C466       C1307   1.404       .  A
C466        H471   1.084       .  S
C467        C468   1.406       .  A
C467       C1306   1.403       .  A
C468        N469   1.433       .  S
N469        H473   1.046       .  S
N469        H474   1.046       .  S
N472        H475   1.045       .  S
N472        H476   1.046       .  S
C477        C478   1.401       .  A
C477        C482   1.399       .  A
C477        H484   1.084       .  S
C478       C1319   1.407   1_545  A
C479        C480   1.399       .  A
C479       C1318   1.405       .  A
C479        N486   1.433       .  S
C480       C1321   1.405       .  A
C480        H485   1.084       .  S
C481        C482   1.420       .  A
C481       C1320   1.406   1_545  A
C482        N483   1.432       .  S
N483        H487   1.045       .  S
N483        H488   1.046       .  S
N486        H489   1.046       .  S
N486        H490   1.046       .  S
C491        C492   1.405       .  A
C491        C496   1.400       .  A
C491        H498   1.084       .  S
C492       C1333   1.409   1_545  A
C493        C494   1.404       .  A
C493       C1332   1.413       .  A
C493        N500   1.438       .  S
C494       C1335   1.402       .  A
C494        H499   1.084       .  S
C495        C496   1.412       .  A
C495       C1334   1.401   1_545  A
C496        N497   1.433       .  S
N497        H501   1.045       .  S
N497        H502   1.046       .  S
N500        H503   1.046       .  S
N500        H504   1.046       .  S
C505        C506   1.407       .  A
C505        C510   1.400       .  A
C505        H512   1.084       .  S
C506        C507   1.418       .  A
C507        C508   1.398       .  A
C507        N514   1.433       .  S
C508        C509   1.402       .  A
C508        H513   1.084       .  S
C509        C510   1.412       .  A
C510        N511   1.433       .  S
N511        H515   1.044       .  S
N511        H516   1.046       .  S
N514        H517   1.046       .  S
N514        H518   1.044       .  S
C519        C520   1.404       .  A
C519        C524   1.401       .  A
C519        H526   1.084       .  S
C520        C521   1.415       .  A
C521        C522   1.407       .  A
C521        N528   1.438       .  S
C522        C523   1.401       .  A
C522        H527   1.084       .  S
C523       C1034   1.476   1_545  S
C523        C524   1.406       .  A
C524        N525   1.433   1_545  S
N525        H529   1.046   1_565  S
N525        H530   1.046       .  S
N528        H531   1.046       .  S
N528        H532   1.046       .  S
C533        C534   1.405       .  A
C533        C538   1.399       .  A
C533        H540   1.084       .  S
C534        C535   1.416       .  A
C535        C536   1.406       .  A
C535        N542   1.438       .  S
C536        C537   1.400       .  A
C536        H541   1.084       .  S
C537        C538   1.412       .  A
C538        N539   1.433       .  S
N539        H543   1.044       .  S
N539        H544   1.046       .  S
N542        H545   1.045       .  S
N542        H546   1.046       .  S
C547        C548   1.402       .  A
C547        C552   1.399       .  A
C547        H554   1.084       .  S
C548       C1070   1.480   1_545  S
C548        C549   1.413       .  A
C549        C550   1.400       .  A
C549        N556   1.433       .  S
C550        C551   1.406       .  A
C550        H555   1.084       .  S
C551        C552   1.418       .  A
C552        N553   1.433       .  S
N553        H557   1.044       .  S
N553        H558   1.046       .  S
N556        H559   1.046       .  S
N556        H560   1.044       .  S
C561        C562   1.400       .  A
C561        C566   1.401       .  A
C561        H568   1.084       .  S
C562        C563   1.410       .  A
C563        C564   1.404       .  A
C563        N570   1.433       .  S
C564        C565   1.406       .  A
C564        H569   1.084       .  S
C565        C566   1.415       .  A
C566        N567   1.432       .  S
N567        H571   1.046       .  S
N567        H572   1.046       .  S
N570        H573   1.046       .  S
N570        H574   1.046       .  S
C575        C576   1.409       .  A
C575        C580   1.404       .  A
C575        H582   1.084       .  S
C576        C577   1.420       .  A
C577        C578   1.399       .  A
C577        N584   1.433       .  S
C578        C579   1.404       .  A
C578        H583   1.084       .  S
C579        C580   1.407       .  A
C580        N581   1.432       .  S
N581        H585   1.046       .  S
N581        H586   1.046       .  S
N584        H587   1.046       .  S
N584        H588   1.045       .  S
C589        C590   1.406       .  A
C589        C594   1.401       .  A
C589        H596   1.084       .  S
C590        C591   1.413       .  A
C591        C592   1.402       .  A
C591        N598   1.432       .  S
C592        C593   1.402       .  A
C592        H597   1.084       .  S
C593        C594   1.408       .  A
C594        N595   1.433       .  S
N595        H599   1.046       .  S
N595        H600   1.046       .  S
N598        H601   1.046       .  S
N598        H602   1.046       .  S
C603        C604   1.406       .  A
C603        C608   1.402       .  A
C603        H610   1.084       .  S
C604        C605   1.414       .  A
C605        C606   1.405       .  A
C605        N612   1.432       .  S
C606        C607   1.403       .  A
C606        H611   1.084       .  S
C607        C608   1.410       .  A
C608        N609   1.433       .  S
N609        H613   1.046       .  S
N609        H614   1.046       .  S
N612        H615   1.046       .  S
N612        H616   1.046       .  S
C617        C618   1.404       .  A
C617        C622   1.398       .  A
C617        H624   1.084       .  S
C618        C619   1.411       .  A
C619        C620   1.401       .  A
C619       N1466   1.432       .  S
C620        C621   1.401       .  A
C620        H625   1.084       .  S
C621        C622   1.414       .  A
C622        N623   1.433       .  S
N623        H627   1.046       .  S
N623        H628   1.044       .  S
N626       C1459   1.432       .  S
N626        H629   1.046       .  S
N626        H630   1.046       .  S
C631        C636   1.402       .  A
C631       C1472   1.406       .  A
C631        H638   1.084       .  S
C632        C633   1.416       .  A
C632       C1471   1.404   1_545  A
C633        C634   1.408       .  A
C633        N640   1.438       .  S
C634        C635   1.401       .  A
C634        H639   1.084       .  S
C635       C1476   1.406   1_545  A
C636       C1475   1.408       .  A
C636        N637   1.433       .  S
N637        H641   1.046       .  S
N637        H642   1.046       .  S
N640        H643   1.046       .  S
N640        H644   1.046       .  S
C645        C650   1.397       .  A
C645       C1486   1.405       .  A
C645        H652   1.084       .  S
C646        C647   1.413       .  A
C646       C1485   1.404   1_545  A
C647        C648   1.405       .  A
C647        N654   1.432       .  S
C648        C649   1.402       .  A
C648        H653   1.084       .  S
C649       C1490   1.415   1_545  A
C650       C1489   1.412       .  A
C650        N651   1.433       .  S
N651        H655   1.044       .  S
N651        H656   1.046       .  S
N654        H657   1.046       .  S
N654        H658   1.046       .  S
C659        C664   1.403       .  A
C659       C1500   1.406   1_545  A
C659        H666   1.083       .  S
C660        C661   1.417       .  A
C660       C1499   1.406       .  A
C661        C662   1.408       .  A
C661        N668   1.438       .  S
C662        C663   1.404       .  A
C662        H667   1.084       .  S
C663       C1504   1.411       .  A
C664       C1503   1.413   1_545  A
C664        N665   1.439       .  S
N665        H669   1.046       .  S
N665        H670   1.045       .  S
N668        H671   1.046       .  S
N668        H672   1.046       .  S
C673        C674   1.405       .  A
C673        C678   1.402       .  A
C673        H680   1.084       .  S
C674        C675   1.416       .  A
C675        C676   1.408       .  A
C675        N682   1.432       .  S
C676        C677   1.404       .  A
C676        H681   1.084       .  S
C677        C678   1.409       .  A
C678        N679   1.433       .  S
N679        H683   1.046       .  S
N679        H684   1.046       .  S
N682        H685   1.046       .  S
N682        H686   1.046       .  S
C687        C688   1.405       .  A
C687        C692   1.403       .  A
C687        H694   1.084       .  S
C688        C689   1.411       .  A
C689        C690   1.404       .  A
C689        N696   1.438       .  S
C690        C691   1.402       .  A
C690        H695   1.084       .  S
C691        C692   1.417       .  A
C692        N693   1.439       .  S
N693        H697   1.046       .  S
N693        H698   1.043       .  S
N696        H699   1.046       .  S
N696        H700   1.046       .  S
C701        C702   1.400       .  A
C701        C706   1.405       .  A
C701        H708   1.084       .  S
C702        C703   1.405       .  A
C703        C704   1.402       .  A
C703        N710   1.438       .  S
C704        C705   1.406       .  A
C704        H709   1.084       .  S
C705        C706   1.412       .  A
C706        N707   1.438       .  S
N707        H711   1.046       .  S
N707        H712   1.046       .  S
N710        H713   1.046       .  S
N710        H714   1.046       .  S
C715        C716   1.404       .  A
C715        C720   1.402       .  A
C715        H722   1.084       .  S
C716        C717   1.415       .  A
C717        C718   1.408       .  A
C717        N724   1.438       .  S
C718        C719   1.401       .  A
C718        H723   1.084       .  S
C719        C720   1.407       .  A
C720        N721   1.432       .  S
N721        H725   1.046       .  S
N721        H726   1.046       .  S
N724        H727   1.046       .  S
N724        H728   1.046       .  S
C729        C730   1.401       .  A
C729        C734   1.394       .  A
C729        H736   1.084       .  S
C730        C731   1.414       .  A
C731        C732   1.401       .  A
C731        N738   1.433       .  S
C732        C733   1.407       .  A
C732        H737   1.084       .  S
C733        C734   1.417       .  A
C734        N735   1.433       .  S
N735        H739   1.044       .  S
N735        H740   1.046       .  S
N738        H741   1.046       .  S
N738        H742   1.044       .  S
C743        C744   1.406       .  A
C743        C748   1.399       .  A
C743        H750   1.084       .  S
C744        C745   1.421       .  A
C745        C746   1.399       .  A
C745        N752   1.432       .  S
C746        C747   1.400       .  A
C746        H751   1.084       .  S
C747        C748   1.407       .  A
C748        N749   1.433       .  S
N749        H753   1.046       .  S
N749        H754   1.046       .  S
N752        H755   1.045       .  S
N752        H756   1.046       .  S
C757        C758   1.405       .  A
C757        C762   1.399       .  A
C757        H764   1.084       .  S
C758        C759   1.419       .  A
C759        C760   1.408       .  A
C759        N766   1.438       .  S
C760        C761   1.404       .  A
C760        H765   1.083       .  S
C761        C993   1.487       .  S
C761        C762   1.410       .  A
C762        N763   1.433       .  S
N763        H767   1.046       .  S
N763        H768   1.045       .  S
N766        H769   1.046       .  S
N766        H770   1.046       .  S
C771        C772   1.405       .  A
C771        C776   1.398       .  A
C771        H778   1.084       .  S
C772        C773   1.417       .  A
C773        C774   1.407       .  A
C773        N780   1.438       .  S
C774        C775   1.403       .  A
C774        H779   1.084       .  S
C775        C919   1.479       .  S
C775        C776   1.406       .  A
C776       N1617   1.433       .  S
N777       C1616   1.438   1_545  S
N777        H781   1.046       .  S
N777        H782   1.046       .  S
N780        H783   1.045       .  S
N780        H784   1.046       .  S
C785        C786   1.402       .  A
C785        C790   1.405       .  A
C785        H792   1.084       .  S
C786        C787   1.410       .  A
C787        C788   1.404       .  A
C787        N794   1.433       .  S
C788        C789   1.406       .  A
C788        H793   1.084       .  S
C789        C790   1.416       .  A
C790        N791   1.432       .  S
N791        H795   1.046       .  S
N791        H796   1.046       .  S
N794        H797   1.045       .  S
N794        H798   1.046       .  S
C799        C800   1.406       .  A
C799        C804   1.398       .  A
C799        H806   1.084       .  S
C800        C801   1.414       .  A
C801        C802   1.400       .  A
C801        N808   1.438       .  S
C802        C803   1.401       .  A
C802        H807   1.084       .  S
C803        C804   1.412       .  A
C804        N805   1.433       .  S
N805        H809   1.044       .  S
N805        H810   1.046       .  S
N808        H811   1.046       .  S
N808        H812   1.046       .  S
C813        C814   1.407       .  A
C813        C818   1.405       .  A
C813        H820   1.083       .  S
C814        C815   1.417       .  A
C815        C816   1.409       .  A
C815        N822   1.438       .  S
C816        C817   1.405       .  A
C816        H821   1.084       .  S
C817        C928   1.489       .  S
C817        C818   1.412       .  A
C818        N819   1.438       .  S
N819        H823   1.046       .  S
N819       H1664   1.046       .  S
N822        H825   1.046       .  S
N822        H826   1.046       .  S
H824       N1659   1.046       .  S
C827        C828   1.404       .  A
C827        C832   1.401       .  A
C827        H834   1.083       .  S
C828        C829   1.416       .  A
C829        C830   1.402       .  A
C829        N836   1.438       .  S
C830        C831   1.400       .  A
C830        H835   1.084       .  S
C831       C1006   1.476       .  S
C831        C832   1.411       .  A
C832        N833   1.438       .  S
N833        H837   1.046       .  S
N833        H838   1.046       .  S
N836        H839   1.046       .  S
N836        H840   1.046       .  S
O841       Cu849   2.008       .  S
O841        C851   1.279       .  A
O842       Cu849   2.007       .  S
O842        C852   1.277       .  A
O843       Cu849   2.012       .  S
O843        C853   1.279       .  A
O844       Cu849   2.006       .  S
O844        C854   1.277       .  A
O845       Cu850   2.009       .  S
O845        C854   1.279       .  A
O846       Cu850   2.011       .  S
O846        C853   1.278       .  A
O847       Cu850   2.004       .  S
O847        C852   1.278       .  A
O848       Cu850   2.007       .  S
O848        C851   1.277       .  A
Cu849      Cu850   2.369       .  S
C851       C1668   1.487       .  S
C852       C1640   1.477       .  S
C853       C1629   1.490       .  S
C854       C1654   1.483       .  S
O855       Cu863   1.999       .  S
O855        C865   1.278       .  A
O856       Cu863   1.999       .  S
O856        C866   1.275       .  A
O857       Cu863   2.010       .  S
O857        C867   1.279       .  A
O858       Cu863   2.010       .  S
O858        C868   1.278       .  A
O859       Cu864   1.998       .  S
O859        C868   1.276       .  A
O860       Cu864   2.002       .  S
O860        C867   1.276       .  A
O861       Cu864   2.009       .  S
O861        C866   1.277       .  A
O862       Cu864   2.006       .  S
O862        C865   1.277       .  A
Cu863      Cu864   2.371       .  S
C865       C1584   1.483       .  S
C866       C1612   1.464       .  S
C867       C1598   1.486       .  S
C868       C1573   1.480       .  S
O869       Cu877   2.008       .  S
O869        C879   1.276       .  A
O870      Cu2557   2.012       .  S
O870        C880   1.280       .  A
O871      Cu2557   2.009       .  S
O871        C881   1.278       .  A
O872       Cu877   2.008       .  S
O872        C882   1.279       .  A
O873       Cu878   2.004       .  S
O873        C882   1.277       .  A
O874      Cu2558   2.007       .  S
O874        C881   1.278       .  A
O875      Cu2558   2.009       .  S
O875        C880   1.277       .  A
O876       Cu878   2.015       .  S
O876        C879   1.278       .  A
Cu877      O2550   2.012       .  S
Cu877      O2551   2.007       .  S
Cu877      Cu878   2.370       .  S
Cu878      O2554   1.999       .  S
Cu878      O2555   2.018       .  S
C879       C1542   1.470       .  S
C880       C1514   1.491       .  S
C881       C1528   1.482       .  S
C882       C1556   1.483       .  S
C883       C1643   1.476       .  S
C883        C884   1.400       .  A
C883        C888   1.401       .  A
C884        C885   1.404       .  A
C884        H889   1.084       .  S
C885       C1187   1.490       .  S
C885        C886   1.407       .  A
C886        C887   1.407       .  A
C886        H890   1.083       .  S
C887       C1545   1.489       .  S
C887        C888   1.404       .  A
C888        H891   1.084       .  S
C892       C1531   1.481       .  S
C892        C893   1.403       .  A
C892        C897   1.401       .  A
C893        C894   1.404       .  A
C893        H898   1.084       .  S
C894       C1186   1.484       .  S
C894        C895   1.404       .  A
C895        C896   1.402       .  A
C895        H899   1.083       .  S
C896       C1570   1.478       .  S
C896        C897   1.402       .  A
C897        H900   1.084       .  S
O901       Cu909   2.013       .  S
O902      Cu2589   2.012       .  S
O902        C912   1.277       .  A
O903      Cu2589   2.019       .  S
O904       Cu909   2.006       .  S
O904        C914   1.277       .  A
O905       Cu910   2.007       .  S
O906      Cu2590   2.016       .  S
O906        C913   1.278       .  A
O907      Cu2590   2.016       .  S
O908       Cu910   2.021       .  S
O908        C911   1.279       .  A
Cu909      O2582   2.008       .  S
Cu909      O2583   2.001       .  S
Cu910      O2586   2.003       .  S
Cu910      O2587   2.022       .  S
C911       C1472   1.492       .  S
C912       C1500   1.494       .  S
C913       C1486   1.485       .  S
C914       C1458   1.485       .  S
C915       C1489   1.480       .  S
C915        C916   1.403       .  A
C916        C917   1.405       .  A
C916        H921   1.084       .  S
C917       C1185   1.486       .  S
C917        C918   1.403       .  A
C918        C919   1.403       .  A
C918        H922   1.084       .  S
C920        H923   1.084       .  S
C924       C1475   1.489       .  S
C924        C925   1.405       .  A
C925        C926   1.407       .  A
C925        H930   1.084       .  S
C926       C1188   1.489       .  S
C926        C927   1.404       .  A
C927        C928   1.404       .  A
C927        H931   1.084       .  S
C929        H932   1.084   1_545  S
O933       Cu941   2.011       .  S
O933        C943   1.279       .  A
O934       Cu941   2.010   1_554  S
O934        C944   1.279       .  A
O935       Cu941   2.008       .  S
O935        C945   1.279       .  A
O936       Cu941   2.005   1_554  S
O936        C946   1.277       .  A
O937       Cu942   2.006       .  S
O937        C946   1.279       .  A
O938       Cu942   2.012   1_556  S
O938        C945   1.277       .  A
O939       Cu942   1.998       .  S
O939        C944   1.276       .  A
O940       Cu942   1.995   1_556  S
O940        C943   1.276       .  A
Cu941      Cu942   2.367   1_556  S
C943       C1430   1.482       .  S
C944       C1416   1.487       .  S
C945       C1444   1.489       .  S
C946       C1405   1.483       .  S
C947       C1626   1.490       .  S
C947        C948   1.404       .  A
C947        C952   1.407       .  A
C948        C949   1.402       .  A
C948        H953   1.084       .  S
C949       C1219   1.480       .  S
C949        C950   1.402       .  A
C950        C951   1.402       .  A
C950        H954   1.084       .  S
C951       C1447   1.484       .  S
C951        C952   1.405       .  A
C952        H955   1.083       .  S
C956       C1587   1.476       .  S
C956        C957   1.400       .  A
C956        C961   1.402       .  A
C957        C958   1.399       .  A
C957        H962   1.084       .  S
C958       C1220   1.476       .  S
C958        C959   1.401       .  A
C959        C960   1.402       .  A
C959        H963   1.084       .  S
C960       C1433   1.479       .  S
C960        C961   1.402       .  A
C961        H964   1.084       .  S
O965       Cu973   2.006       .  S
O965        C975   1.278       .  A
O966       Cu973   2.008       .  S
O966        C976   1.278       .  A
O967       Cu973   2.009       .  S
O967        C977   1.278       .  A
O968       Cu973   2.011       .  S
O968        C978   1.279       .  A
O969       Cu974   2.008       .  S
O969        C978   1.278       .  A
O970       Cu974   2.012       .  S
O970        C977   1.279       .  A
O971       Cu974   1.998       .  S
O971        C976   1.276       .  A
O972       Cu974   2.001       .  S
O972        C975   1.276       .  A
Cu973      Cu974   2.370       .  S
C975       C1346   1.485       .  S
C976       C1391   1.475       .  S
C977       C1360   1.483       .  S
C978       C1374   1.482       .  S
O979       Cu987   2.003       .  S
O980       Cu987   2.002   1_556  S
O980        C990   1.277       .  A
O981       Cu987   2.004       .  S
O982       Cu987   1.998   1_556  S
O982        C992   1.275       .  A
O983       Cu988   2.013       .  S
O984       Cu988   2.010   1_554  S
O984        C991   1.277       .  A
O985       Cu988   2.007       .  S
O986       Cu988   2.004   1_554  S
O986        C989   1.277       .  A
C989       C1293   1.477       .  S
C990       C1332   1.480       .  S
C991       C1304   1.490       .  S
C992       C1321   1.481       .  S
C993        C998   1.406       .  A
C994        H999   1.084   1_545  S
C995       C1335   1.477       .  S
C995        C996   1.400       .  A
C996        C997   1.403       .  A
C996       H1000   1.083       .  S
C997       C1221   1.484       .  S
C997        C998   1.405       .  A
C998       H1001   1.084       .  S
C1002      C1318   1.473       .  S
C1002      C1003   1.400       .  A
C1003      C1004   1.403       .  A
C1003      H1008   1.084       .  S
C1004      C1222   1.478       .  S
C1004      C1005   1.401       .  A
C1005      C1006   1.402       .  A
C1005      H1009   1.084       .  S
C1007      H1010   1.084       .  S
O1011     Cu1019   2.013       .  S
O1011      C1021   1.278       .  A
O1012     Cu1019   2.003       .  S
O1012      C1022   1.278       .  A
O1013     Cu1019   2.013       .  S
O1013      C1023   1.277       .  A
O1014     Cu1019   2.015       .  S
O1014      C1024   1.280       .  A
O1015     Cu1020   2.004       .  S
O1015      C1024   1.276       .  A
O1016     Cu1020   2.002       .  S
O1016      C1023   1.276       .  A
O1017     Cu1020   2.017       .  S
O1017      C1022   1.279       .  A
O1018     Cu1020   2.019       .  S
O1018      C1021   1.281       .  A
Cu1019    Cu1020   2.371       .  S
C1021      C1279   1.493       .  S
C1022      C1234   1.485       .  S
C1023      C1265   1.467       .  S
C1024      C1251   1.484       .  S
C1025      C1026   1.405       .  A
C1026      C1027   1.406       .  A
C1026      H1031   1.084       .  S
C1027      C1118   1.487       .  S
C1027      C1028   1.404       .  A
C1028      C1029   1.404       .  A
C1028      H1032   1.084       .  S
C1029      C1307   1.486       .  S
C1030      H1033   1.084       .  S
C1034      C1035   1.403       .  A
C1035      C1036   1.405       .  A
C1035      H1040   1.084       .  S
C1036      C1117   1.482       .  S
C1036      C1037   1.401       .  A
C1037      C1038   1.399       .  A
C1037      H1041   1.084       .  S
C1038      C1290   1.474       .  S
C1039      H1042   1.084       .  S
C1043      C1419   1.483       .  S
C1043      C1044   1.402       .  A
C1043      C1048   1.404       .  A
C1044      C1045   1.402       .  A
C1044      H1049   1.084       .  S
C1045      C1349   1.480       .  S
C1045      C1046   1.401       .  A
C1046      C1047   1.402       .  A
C1046      H1050   1.083       .  S
C1047      C1120   1.481       .  S
C1047      C1048   1.403       .  A
C1048      H1051   1.084       .  S
C1052      C1402   1.479       .  S
C1052      C1053   1.402       .  A
C1052      C1057   1.402       .  A
C1053      C1054   1.401       .  A
C1053      H1058   1.084       .  S
C1054      C1237   1.482       .  S
C1054      C1055   1.402       .  A
C1055      C1056   1.403       .  A
C1055      H1059   1.084       .  S
C1056      C1119   1.481       .  S
C1056      C1057   1.404       .  A
C1057      H1060   1.084       .  S
C1061      C1066   1.403       .  A
C1062      H1067   1.084       .  S
C1063      C1503   1.490       .  S
C1063      C1064   1.405       .  A
C1064      C1065   1.405       .  A
C1064      H1068   1.084       .  S
C1065      C1151   1.483       .  S
C1065      C1066   1.401       .  A
C1066      H1069   1.084       .  S
C1070      C1071   1.403       .  A
C1071      C1072   1.404       .  A
C1071      H1076   1.084       .  S
C1072      C1152   1.486       .  S
C1072      C1073   1.405       .  A
C1073      C1074   1.403       .  A
C1073      H1077   1.084       .  S
C1074      C1461   1.481       .  S
C1075      H1078   1.084       .  S
C1079      C1559   1.481       .  S
C1079      C1080   1.404       .  A
C1079      C1084   1.402       .  A
C1080      C1081   1.404       .  A
C1080      H1085   1.084       .  S
C1081      C1153   1.484       .  S
C1081      C1082   1.404       .  A
C1082      C1083   1.402       .  A
C1082      H1086   1.084       .  S
C1083      C1377   1.478       .  S
C1083      C1084   1.400       .  A
C1084      H1087   1.084       .  S
C1088      C1517   1.487       .  S
C1088      C1089   1.404       .  A
C1088      C1093   1.405       .  A
C1089      C1090   1.403       .  A
C1089      H1094   1.084       .  S
C1090      C1262   1.486       .  S
C1090      C1091   1.403       .  A
C1091      C1092   1.402       .  A
C1091      H1095   1.084       .  S
C1092      C1154   1.484       .  S
C1092      C1093   1.405       .  A
C1093      H1096   1.084       .  S
N1097      H1129   1.038       .  S
N1097      C2782   1.351       .  A
N1097      C1101   1.352       .  A
N1098      C1105   1.351       .  A
N1098      C1106   1.351       .  A
N1099      H1130   1.037       .  S
N1099      C2784   1.353       .  A
N1099      C1103   1.353       .  A
N1100      C1107   1.353       .  A
N1100      C1108   1.351       .  A
C1101      C1109   1.387       .  A
C1101      C1117   1.412       .  A
C1102      C1118   1.414       .  A
C1102      C1110   1.386       .  A
C1102      N2777   1.353   1_455  A
C1103      C1111   1.387       .  A
C1103      C1120   1.415       .  A
C1104      C1119   1.415       .  A
C1104      C1112   1.387       .  A
C1104      N2779   1.352   1_455  A
C1105      C1117   1.412       .  A
C1105      C1113   1.386       .  A
C1106      C1120   1.412       .  A
C1106      C1114   1.387       .  A
C1107      C1115   1.386       .  A
C1107      C1118   1.413       .  A
C1108      C1116   1.387       .  A
C1108      C1119   1.414       .  A
C1109      C2790   1.373       .  A
C1109      H1121   1.082       .  S
C1110      C2789   1.375   1_455  A
C1110      H1122   1.082       .  S
C1111      C2792   1.375       .  A
C1111      H1123   1.082       .  S
C1112      C2791   1.375   1_455  A
C1112      H1124   1.082       .  S
C1113      C1114   1.371       .  A
C1113      H1125   1.082       .  S
C1114      H1126   1.082       .  S
C1115      C1116   1.371       .  A
C1115      H1127   1.082       .  S
C1116      H1128   1.082       .  S
N1131      H1163   1.038       .  S
N1131      C1136   1.354       .  A
N1131      C1135   1.354       .  A
N1132      C1139   1.350       .  A
N1132      C1140   1.351       .  A
N1133      H1164   1.038       .  S
N1133      C1138   1.352       .  A
N1133      C1137   1.354       .  A
N1134      C1141   1.352       .  A
N1134      C1142   1.352       .  A
C1135      C1143   1.387       .  A
C1135      C1151   1.416       .  A
C1136      C1152   1.417       .  A
C1136      C1144   1.388       .  A
C1137      C1145   1.386       .  A
C1137      C1154   1.414       .  A
C1138      C1153   1.415       .  A
C1138      C1146   1.388       .  A
C1139      C1151   1.411       .  A
C1139      C1147   1.387       .  A
C1140      C1154   1.410       .  A
C1140      C1148   1.386       .  A
C1141      C1149   1.387       .  A
C1141      C1152   1.415       .  A
C1142      C1150   1.386       .  A
C1142      C1153   1.414       .  A
C1143      C1144   1.376       .  A
C1143      H1155   1.082       .  S
C1144      H1156   1.083       .  S
C1145      C1146   1.375       .  A
C1145      H1157   1.082       .  S
C1146      H1158   1.082       .  S
C1147      C1148   1.371       .  A
C1147      H1159   1.082       .  S
C1148      H1160   1.082       .  S
C1149      C1150   1.373       .  A
C1149      H1161   1.082       .  S
C1150      H1162   1.082       .  S
N1165      H1197   1.037       .  S
N1165      C1170   1.353       .  A
N1165      C1169   1.353       .  A
N1166      C1173   1.354       .  A
N1166      C1174   1.353       .  A
N1167      H1198   1.038       .  S
N1167      C1172   1.355       .  A
N1167      C1171   1.354       .  A
N1168      C1175   1.353       .  A
N1168      C1176   1.353       .  A
C1169      C1177   1.388       .  A
C1169      C1185   1.416       .  A
C1170      C1186   1.415       .  A
C1170      C1178   1.387       .  A
C1171      C1179   1.387       .  A
C1171      C1188   1.417       .  A
C1172      C1187   1.417       .  A
C1172      C1180   1.387       .  A
C1173      C1185   1.416       .  A
C1173      C1181   1.386       .  A
C1174      C1188   1.417       .  A
C1174      C1182   1.387       .  A
C1175      C1183   1.387       .  A
C1175      C1186   1.415       .  A
C1176      C1184   1.387       .  A
C1176      C1187   1.416       .  A
C1177      C1178   1.374       .  A
C1177      H1189   1.082       .  S
C1178      H1190   1.082       .  S
C1179      C1180   1.374       .  A
C1179      H1191   1.082       .  S
C1180      H1192   1.082       .  S
C1181      C1182   1.372       .  A
C1181      H1193   1.082       .  S
C1182      H1194   1.082       .  S
C1183      C1184   1.371       .  A
C1183      H1195   1.082       .  S
C1184      H1196   1.082       .  S
N1199      H1231   1.038       .  S
N1199      C2884   1.352       .  A
N1199      C1203   1.352       .  A
N1200      C1207   1.350       .  A
N1200      C1208   1.349       .  A
N1201      H1232   1.038       .  S
N1201      C2886   1.352       .  A
N1201      C1205   1.352       .  A
N1202      C1209   1.350       .  A
N1202      C1210   1.351       .  A
C1203      C1211   1.387       .  A
C1203      C1219   1.413       .  A
C1204      C1220   1.413       .  A
C1204      C1212   1.388       .  A
C1204      N2879   1.352   1_455  A
C1205      C1213   1.387       .  A
C1205      C1222   1.413       .  A
C1206      C1221   1.415       .  A
C1206      C1214   1.387       .  A
C1206      N2881   1.354   1_455  A
C1207      C1219   1.409       .  A
C1207      C1215   1.386       .  A
C1208      C1222   1.409       .  A
C1208      C1216   1.386       .  A
C1209      C1217   1.387       .  A
C1209      C1220   1.411       .  A
C1210      C1218   1.386       .  A
C1210      C1221   1.411       .  A
C1211      C2892   1.376       .  A
C1211      H1223   1.082       .  S
C1212      C2891   1.375   1_455  A
C1212      H1224   1.083       .  S
C1213      C2894   1.375       .  A
C1213      H1225   1.082       .  S
C1214      C2893   1.374   1_455  A
C1214      H1226   1.082       .  S
C1215      C1216   1.370       .  A
C1215      H1227   1.082       .  S
C1216      H1228   1.082       .  S
C1217      C1218   1.371       .  A
C1217      H1229   1.082       .  S
C1218      H1230   1.082       .  S
C1233      C1234   1.406       .  A
C1233      C1238   1.404       .  A
C1233      H1240   1.083       .  S
C1234      C1235   1.413       .  A
C1235      C1236   1.404       .  A
C1235      N1242   1.432       .  S
C1236      C1237   1.403       .  A
C1236      H1241   1.084       .  S
C1237      C1238   1.411       .  A
C1238      N1239   1.438       .  S
N1239      H1243   1.046       .  S
N1239      H1244   1.046       .  S
N1242      H1245   1.046       .  S
N1242      H1246   1.046       .  S
C1247      C1248   1.402       .  A
C1247      C1252   1.408       .  A
C1247      H1254   1.084       .  S
C1248      C1249   1.410       .  A
C1249      C1250   1.404       .  A
C1249      N1256   1.438       .  S
C1250      C1251   1.404       .  A
C1250      H1255   1.084       .  S
C1251      C1252   1.416       .  A
C1252      N1253   1.438       .  S
N1253      H1257   1.046       .  S
N1253      H1258   1.046       .  S
N1256      H1259   1.046       .  S
N1256      H1260   1.046       .  S
C1261      C1262   1.405       .  A
C1261      C1266   1.402       .  A
C1261      H1268   1.084       .  S
C1262      C1263   1.415       .  A
C1263      C1264   1.408       .  A
C1263      N1270   1.438       .  S
C1264      C1265   1.401       .  A
C1264      H1269   1.084       .  S
C1265      C1266   1.406       .  A
C1266      N1267   1.438       .  S
N1267      H1271   1.046       .  S
N1267      H1272   1.046       .  S
N1270      H1273   1.046       .  S
N1270      H1274   1.046       .  S
C1275      C1276   1.404       .  A
C1275      C1280   1.411       .  A
C1275      H1282   1.084       .  S
C1276      C1277   1.412       .  A
C1277      C1278   1.405       .  A
C1277      N1284   1.438       .  S
C1278      C1279   1.405       .  A
C1278      H1283   1.083       .  S
C1279      C1280   1.419       .  A
C1280      N1281   1.438       .  S
N1281      H1285   1.046       .  S
N1281      H1286   1.046       .  S
N1284      H1287   1.046       .  S
N1284      H1288   1.046       .  S
C1289      C1290   1.402       .  A
C1289      C1294   1.405       .  A
C1289      H1296   1.084       .  S
C1291      C1292   1.404       .  A
C1291      N1298   1.438       .  S
C1292      H1297   1.083       .  S
C1293      C1294   1.414       .  A
C1294      N1295   1.438       .  S
N1295      H1299   1.046       .  S
N1295      H1300   1.046       .  S
N1298      H1301   1.046       .  S
N1298      H1302   1.046       .  S
C1303      C1304   1.406   1_545  A
C1303      C1308   1.400       .  A
C1303      H1310   1.084       .  S
C1305      C1306   1.408       .  A
C1305      N1312   1.438       .  S
C1306      H1311   1.084       .  S
C1307      C1308   1.408   1_565  A
C1308      N1309   1.433       .  S
N1309      H1313   1.045       .  S
N1309      H1314   1.046       .  S
N1312      H1315   1.045       .  S
N1312      H1316   1.046       .  S
C1317      C1318   1.400       .  A
C1317      C1322   1.399       .  A
C1317      H1324   1.084       .  S
C1319      C1320   1.402       .  A
C1319      N1326   1.433       .  S
C1320      H1325   1.084       .  S
C1321      C1322   1.420       .  A
C1322      N1323   1.433       .  S
N1323      H1327   1.045       .  S
N1323      H1328   1.046       .  S
N1326      H1329   1.046       .  S
N1326      H1330   1.046       .  S
C1331      C1332   1.406       .  A
C1331      C1336   1.398       .  A
C1331      H1338   1.084       .  S
C1333      C1334   1.400       .  A
C1333      N1340   1.432       .  S
C1334      H1339   1.084       .  S
C1335      C1336   1.412       .  A
C1336      N1337   1.433       .  S
N1337      H1341   1.044       .  S
N1337      H1342   1.046       .  S
N1340      H1343   1.046       .  S
N1340      H1344   1.046       .  S
C1345      C1346   1.407       .  A
C1345      C1350   1.399       .  A
C1345      H1352   1.084       .  S
C1346      C1347   1.419       .  A
C1347      C1348   1.396       .  A
C1347      N1354   1.433       .  S
C1348      C1349   1.402       .  A
C1348      H1353   1.084       .  S
C1349      C1350   1.414       .  A
C1350      N1351   1.433       .  S
N1351      H1355   1.043       .  S
N1351      H1356   1.046       .  S
N1354      H1357   1.045       .  S
N1354      H1358   1.045       .  S
C1359      C1360   1.405       .  A
C1359      C1364   1.402       .  A
C1359      H1366   1.084       .  S
C1360      C1361   1.413       .  A
C1361      C1362   1.405       .  A
C1361      N1368   1.432       .  S
C1362      C1363   1.402       .  A
C1362      H1367   1.084       .  S
C1363      C1364   1.408       .  A
C1364      N1365   1.432       .  S
N1365      H1369   1.046       .  S
N1365      H1370   1.046       .  S
N1368      H1371   1.046       .  S
N1368      H1372   1.046       .  S
C1373      C1374   1.404       .  A
C1373      C1378   1.397       .  A
C1373      H1380   1.084       .  S
C1374      C1375   1.416       .  A
C1375      C1376   1.408       .  A
C1375      N1382   1.438       .  S
C1376      C1377   1.402       .  A
C1376      H1381   1.084       .  S
C1377      C1378   1.413       .  A
C1378      N1379   1.433       .  S
N1379      H1383   1.044       .  S
N1379      H1384   1.046       .  S
N1382      H1385   1.046       .  S
N1382      H1386   1.046       .  S
C1387      C1388   1.400       .  A
C1387      C1392   1.397       .  A
C1387      H1394   1.084       .  S
C1388      C1389   1.410       .  A
C1389      C1390   1.398       .  A
C1389      N1396   1.433       .  S
C1390      C1391   1.405       .  A
C1390      H1395   1.084       .  S
C1391      C1392   1.415       .  A
C1392      N1393   1.433       .  S
N1393      H1397   1.044       .  S
N1393      H1398   1.046       .  S
N1396      H1399   1.046       .  S
N1396      H1400   1.045       .  S
C1401      C1402   1.403       .  A
C1401      C1406   1.406       .  A
C1401      H1408   1.084       .  S
C1402      C1403   1.407       .  A
C1403      C1404   1.399       .  A
C1403      N1410   1.433       .  S
C1404      C1405   1.404       .  A
C1404      H1409   1.084       .  S
C1405      C1406   1.415       .  A
C1406      N1407   1.432       .  S
N1407      H1411   1.046       .  S
N1407      H1412   1.046       .  S
N1410      H1413   1.046       .  S
N1410      H1414   1.045       .  S
C1415      C1416   1.408       .  A
C1415      C1420   1.403       .  A
C1415      H1422   1.084       .  S
C1416      C1417   1.420       .  A
C1417      C1418   1.397       .  A
C1417      N1424   1.433       .  S
C1418      C1419   1.402       .  A
C1418      H1423   1.084       .  S
C1419      C1420   1.408       .  A
C1420      N1421   1.433       .  S
N1421      H1425   1.046       .  S
N1421      H1426   1.046       .  S
N1424      H1427   1.045       .  S
N1424      H1428   1.045       .  S
C1429      C1430   1.404       .  A
C1429      C1434   1.401       .  A
C1429      H1436   1.084       .  S
C1430      C1431   1.413       .  A
C1431      C1432   1.400       .  A
C1431      N1438   1.433       .  S
C1432      C1433   1.402       .  A
C1432      H1437   1.084       .  S
C1433      C1434   1.418       .  A
C1434      N1435   1.440       .  S
N1435      H1439   1.046       .  S
N1435      H1440   1.043       .  S
N1438      H1441   1.046       .  S
N1438      H1442   1.046       .  S
C1443      C1444   1.406       .  A
C1443      C1448   1.400       .  A
C1443      H1450   1.084       .  S
C1444      C1445   1.418       .  A
C1445      C1446   1.410       .  A
C1445      N1452   1.438       .  S
C1446      C1447   1.403       .  A
C1446      H1451   1.084       .  S
C1447      C1448   1.406       .  A
C1448      N1449   1.433       .  S
N1449      H1453   1.046       .  S
N1449      H1454   1.046       .  S
N1452      H1455   1.045       .  S
N1452      H1456   1.046       .  S
C1457      C1458   1.404   1_545  A
C1457      C1462   1.399       .  A
C1457      H1464   1.084       .  S
C1458      C1459   1.414       .  A
C1459      C1460   1.405       .  A
C1460      C1461   1.403       .  A
C1460      H1465   1.084       .  S
C1461      C1462   1.414   1_565  A
C1462      N1463   1.433       .  S
N1463      H1467   1.046       .  S
N1463      H1468   1.043       .  S
N1466      H1469   1.046       .  S
N1466      H1470   1.046       .  S
C1471      C1476   1.402       .  A
C1471      H1478   1.084       .  S
C1472      C1473   1.418       .  A
C1473      C1474   1.412       .  A
C1473      N1480   1.438       .  S
C1474      C1475   1.405       .  A
C1474      H1479   1.084       .  S
C1476      N1477   1.432       .  S
N1477      H1481   1.045       .  S
N1477      H1482   1.046       .  S
N1480      H1483   1.046       .  S
N1480      H1484   1.046       .  S
C1485      C1490   1.400       .  A
C1485      H1492   1.084       .  S
C1486      C1487   1.416       .  A
C1487      C1488   1.409       .  A
C1487      N1494   1.438       .  S
C1488      C1489   1.402       .  A
C1488      H1493   1.084       .  S
C1490      N1491   1.433       .  S
N1491      H1495   1.043       .  S
N1491      H1496   1.046       .  S
N1494      H1497   1.045       .  S
N1494      H1498   1.046       .  S
C1499      C1504   1.405       .  A
C1499      H1506   1.083       .  S
C1500      C1501   1.419       .  A
C1501      C1502   1.409       .  A
C1501      N1508   1.438       .  S
C1502      C1503   1.404       .  A
C1502      H1507   1.084       .  S
C1504      N1505   1.438       .  S
N1505      H1509   1.046       .  S
N1505      H1510   1.046       .  S
N1508      H1511   1.046       .  S
N1508      H1512   1.046       .  S
C1513      C1514   1.406       .  A
C1513      C1518   1.400       .  A
C1513      H1520   1.084       .  S
C1514      C1515   1.420       .  A
C1515      C1516   1.410       .  A
C1515      N1522   1.438       .  S
C1516      C1517   1.403       .  A
C1516      H1521   1.084       .  S
C1517      C1518   1.409       .  A
C1518      N1519   1.433       .  S
N1519      H1523   1.046       .  S
N1519      H1524   1.046       .  S
N1522      H1525   1.045       .  S
N1522      H1526   1.046       .  S
C1527      C1528   1.405       .  A
C1527      C1532   1.403       .  A
C1527      H1534   1.084       .  S
C1528      C1529   1.412       .  A
C1529      C1530   1.403       .  A
C1529      N1536   1.438       .  S
C1530      C1531   1.403       .  A
C1530      H1535   1.084       .  S
C1531      C1532   1.418       .  A
C1532      N1533   1.440       .  S
N1533      H1537   1.046       .  S
N1533      H1538   1.042       .  S
N1536      H1539   1.046       .  S
N1536      H1540   1.046       .  S
C1541      C1542   1.400       .  A
C1541      C1546   1.408       .  A
C1541      H1548   1.084       .  S
C1542      C1543   1.407       .  A
C1543      C1544   1.406       .  A
C1543      N1550   1.438       .  S
C1544      C1545   1.408       .  A
C1544      H1549   1.084       .  S
C1545      C1546   1.415       .  A
C1546      N1547   1.438       .  S
N1547      H1551   1.046       .  S
N1547      H1552   1.046       .  S
N1550      H1553   1.046       .  S
N1550      H1554   1.046       .  S
C1555      C1556   1.405       .  A
C1555      C1560   1.400       .  A
C1555      H1562   1.084       .  S
C1556      C1557   1.416       .  A
C1557      C1558   1.407       .  A
C1557      N1564   1.438       .  S
C1558      C1559   1.402       .  A
C1558      H1563   1.084       .  S
C1559      C1560   1.408       .  A
C1560      N1561   1.433       .  S
N1561      H1565   1.046       .  S
N1561      H1566   1.046       .  S
N1564      H1567   1.046       .  S
N1564      H1568   1.046       .  S
C1569      C1570   1.401       .  A
C1569      C1574   1.396       .  A
C1569      H1576   1.084       .  S
C1570      C1571   1.413       .  A
C1571      C1572   1.400       .  A
C1571      N1578   1.433       .  S
C1572      C1573   1.406       .  A
C1572      H1577   1.084       .  S
C1573      C1574   1.418       .  A
C1574      N1575   1.433       .  S
N1575      H1579   1.044       .  S
N1575      H1580   1.046       .  S
N1578      H1581   1.046       .  S
N1578      H1582   1.044       .  S
C1583      C1584   1.407       .  A
C1583      C1588   1.399       .  A
C1583      H1590   1.084       .  S
C1584      C1585   1.419       .  A
C1585      C1586   1.398       .  A
C1585      N1592   1.432       .  S
C1586      C1587   1.401       .  A
C1586      H1591   1.084       .  S
C1587      C1588   1.406       .  A
C1588      N1589   1.433       .  S
N1589      H1593   1.046       .  S
N1589      H1594   1.046       .  S
N1592      H1595   1.045       .  S
N1592      H1596   1.045       .  S
C1597      C1598   1.405       .  A
C1597      C1602   1.400       .  A
C1597      H1604   1.084       .  S
C1598      C1599   1.419       .  A
C1599      C1600   1.407       .  A
C1599      N1606   1.438       .  S
C1600      C1601   1.402       .  A
C1600      H1605   1.084       .  S
C1601      C1602   1.408       .  A
C1602      N1603   1.433       .  S
N1603      H1607   1.046       .  S
N1603      H1608   1.046   1_565  S
N1606      H1609   1.045       .  S
N1606      H1610   1.046       .  S
C1611      C1612   1.400       .  A
C1611      C1616   1.407       .  A
C1611      H1618   1.084       .  S
C1612      C1613   1.406       .  A
C1613      C1614   1.403       .  A
C1613      N1620   1.439       .  S
C1614      C1615   1.404       .  A
C1614      H1619   1.084       .  S
C1615      C1616   1.412       .  A
N1617      H1621   1.046       .  S
N1617      H1622   1.046       .  S
N1620      H1623   1.046       .  S
N1620      H1624   1.046       .  S
C1625      C1626   1.406       .  A
C1625      C1630   1.406       .  A
C1625      H1632   1.084       .  S
C1626      C1627   1.410       .  A
C1627      C1628   1.402       .  A
C1627      N1634   1.433       .  S
C1628      C1629   1.406       .  A
C1628      H1633   1.083       .  S
C1629      C1630   1.415       .  A
C1630      N1631   1.432       .  S
N1631      H1635   1.046       .  S
N1631      H1636   1.046       .  S
N1634      H1637   1.046       .  S
N1634      H1638   1.046       .  S
C1639      C1640   1.406       .  A
C1639      C1644   1.402       .  A
C1639      H1646   1.084       .  S
C1640      C1641   1.409       .  A
C1641      C1642   1.399       .  A
C1641      N1648   1.433       .  S
C1642      C1643   1.400       .  A
C1642      H1647   1.084       .  S
C1643      C1644   1.413       .  A
C1644      N1645   1.433       .  S
N1645      H1649   1.045       .  S
N1645      H1650   1.046       .  S
N1648      H1651   1.046       .  S
N1648      H1652   1.046       .  S
C1653      C1654   1.405       .  A
C1653      C1658   1.404       .  A
C1653      H1660   1.084       .  S
C1654      C1655   1.415       .  A
C1655      C1656   1.406       .  A
C1655      N1662   1.438       .  S
C1656      C1657   1.402       .  A
C1656      H1661   1.084       .  S
C1657      C1658   1.409       .  A
C1658      N1659   1.438   1_565  S
N1659      H1663   1.046   1_545  S
N1662      H1665   1.046       .  S
N1662      H1666   1.046       .  S
C1667      C1668   1.406       .  A
C1667      C1672   1.402       .  A
C1667      H1674   1.083       .  S
C1668      C1669   1.417       .  A
C1669      C1670   1.408       .  A
C1669      N1676   1.438       .  S
C1670      C1671   1.403       .  A
C1670      H1675   1.084       .  S
C1671      C1672   1.411       .  A
C1672      N1673   1.438       .  S
N1673      H1677   1.046       .  S
N1673      H1678   1.046   1_565  S
N1676      H1679   1.046       .  S
N1676      H1680   1.046       .  S
O1681     Cu1689   2.013       .  S
O1681      C1691   1.279       .  A
O1682     Cu1689   2.016       .  S
O1682      C1692   1.279       .  A
O1683     Cu1689   2.010       .  S
O1683      C1693   1.279       .  A
O1684     Cu1689   2.010       .  S
O1684      C1694   1.278       .  A
O1685     Cu1690   2.010       .  S
O1685      C1694   1.279       .  A
O1686     Cu1690   2.006       .  S
O1686      C1693   1.277       .  A
O1687     Cu1690   2.010       .  S
O1687      C1692   1.278       .  A
O1688     Cu1690   2.005       .  S
O1688      C1691   1.277       .  A
Cu1689    Cu1690   2.369       .  S
C1691      C2508   1.484       .  S
C1692      C2480   1.488       .  S
C1693      C2469   1.481       .  S
C1694      C2494   1.488       .  S
O1695     Cu1703   2.006       .  S
O1695      C1705   1.279       .  A
O1696     Cu1703   2.006       .  S
O1696      C1706   1.277       .  A
O1697     Cu1703   2.006       .  S
O1697      C1707   1.279       .  A
O1698     Cu1703   2.004       .  S
O1698      C1708   1.277       .  A
O1699     Cu1704   1.997       .  S
O1699      C1708   1.276       .  A
O1700     Cu1704   1.996       .  S
O1700      C1707   1.275       .  A
O1701     Cu1704   2.006       .  S
O1701      C1706   1.279       .  A
O1702     Cu1704   2.001       .  S
O1702      C1705   1.276       .  A
Cu1703    Cu1704   2.367       .  S
C1705      C2424   1.483       .  S
C1706      C2452   1.490       .  S
C1707      C2438   1.486       .  S
C1708      C2413   1.475       .  S
O1709     Cu1717   2.021   1_655  S
O1709      C1719   1.278       .  A
O1710      C1720   1.280       .  A
O1711      C1721   1.278       .  A
O1712     Cu1717   2.002   1_655  S
O1712      C1722   1.276       .  A
O1713     Cu1718   2.011       .  S
O1713      C1722   1.277       .  A
O1714      C1721   1.278       .  A
O1715      C1720   1.276       .  A
O1716     Cu1718   2.011       .  S
O1716      C1719   1.277       .  A
Cu1717    Cu1718   2.373   1_455  S
C1719      C2382   1.473       .  S
C1720      C2354   1.485       .  S
C1721      C2368   1.483       .  S
C1722      C2396   1.468       .  S
C1723      C2483   1.486       .  S
C1723      C1724   1.403       .  A
C1723      C1728   1.405       .  A
C1724      C1725   1.404       .  A
C1724      H1729   1.083       .  S
C1725      C2027   1.488       .  S
C1725      C1726   1.406       .  A
C1726      C1727   1.406       .  A
C1726      H1730   1.084       .  S
C1727      C2385   1.488       .  S
C1727      C1728   1.405       .  A
C1728      H1731   1.084       .  S
C1732      C2371   1.478       .  S
C1732      C1733   1.403       .  A
C1732      C1737   1.400       .  A
C1733      C1734   1.404       .  A
C1733      H1738   1.084       .  S
C1734      C2026   1.480       .  S
C1734      C1735   1.401       .  A
C1735      C1736   1.400       .  A
C1735      H1739   1.084       .  S
C1736      C2410   1.472       .  S
C1736      C1737   1.400       .  A
C1737      H1740   1.084       .  S
O1741     Cu1749   2.015   1_655  S
O1741      C2591   1.280       .  A
O1742      C1752   1.276       .  A
O1743      C2593   1.278       .  A
O1744     Cu1749   2.010   1_655  S
O1744      C1754   1.277       .  A
O1745     Cu1750   2.004   1_655  S
O1745      C2594   1.277   1_545  A
O1746      C1753   1.278       .  A
O1747      C2592   1.280   1_545  A
O1748     Cu1750   2.008   1_655  S
O1748      C1751   1.277       .  A
Cu1749    Cu2590   2.369       .  S
Cu1750    Cu2589   2.368   1_545  S
C1751      O2581   1.280   1_545  A
C1751      C2312   1.491       .  S
C1752      O2587   1.281       .  A
C1752      C2340   1.492       .  S
C1753      O2583   1.278   1_545  A
C1753      C2326   1.480       .  S
C1754      O2585   1.280       .  A
C1754      C2298   1.486       .  S
C1755      C2329   1.478       .  S
C1755      C1756   1.402       .  A
C1755      C2600   1.400   1_545  A
C1756      C1757   1.404       .  A
C1756      H1761   1.084       .  S
C1757      C2025   1.481       .  S
C1757      C1758   1.402       .  A
C1758      C1759   1.402       .  A
C1758      H1762   1.084       .  S
C1759      C3295   1.477   1_545  S
C1759      C2600   1.401   1_545  A
C1760      C2595   1.400       .  A
C1760      C2599   1.405       .  A
C1760      H1763   1.081       .  S
C1764      C2315   1.486       .  S
C1764      C1765   1.404       .  A
C1764      C2609   1.404       .  A
C1765      C1766   1.404       .  A
C1765      H1770   1.084       .  S
C1766      C2028   1.483       .  S
C1766      C1767   1.403       .  A
C1767      C1768   1.402       .  A
C1767      H1771   1.084       .  S
C1768      C3337   1.482   1_545  S
C1768      C2609   1.404       .  A
C1769      C2604   1.403       .  A
C1769      C2608   1.405       .  A
C1769      H1772   1.084       .  S
O1773     Cu1781   2.008       .  S
O1773      C1783   1.278       .  A
O1774     Cu1781   2.005   1_554  S
O1774      C1784   1.277       .  A
O1775     Cu1781   2.009       .  S
O1775      C1785   1.280       .  A
O1776     Cu1781   2.014   1_554  S
O1776      C1786   1.278       .  A
O1777     Cu1782   2.006       .  S
O1777      C1786   1.279       .  A
O1778     Cu1782   2.002   1_556  S
O1778      C1785   1.276       .  A
O1779     Cu1782   2.007       .  S
O1779      C1784   1.277       .  A
O1780     Cu1782   2.008   1_556  S
O1780      C1783   1.278       .  A
Cu1781    Cu1782   2.368   1_556  S
C1783      C2270   1.485       .  S
C1784      C2256   1.481       .  S
C1785      C2284   1.483       .  S
C1786      C2245   1.490       .  S
C1787      C2466   1.478       .  S
C1787      C1788   1.401       .  A
C1787      C1792   1.401       .  A
C1788      C1789   1.402       .  A
C1788      H1793   1.084       .  S
C1789      C2059   1.479       .  S
C1789      C1790   1.403       .  A
C1790      C1791   1.402       .  A
C1790      H1794   1.084       .  S
C1791      C2287   1.480       .  S
C1791      C1792   1.403       .  A
C1792      H1795   1.084       .  S
C1796      C2427   1.476       .  S
C1796      C1797   1.401       .  A
C1796      C1801   1.401       .  A
C1797      C1798   1.402       .  A
C1797      H1802   1.084       .  S
C1798      C2060   1.484       .  S
C1798      C1799   1.405       .  A
C1799      C1800   1.405       .  A
C1799      H1803   1.084       .  S
C1800      C2273   1.482       .  S
C1800      C1801   1.402       .  A
C1801      H1804   1.084       .  S
O1805     Cu1813   2.005       .  S
O1805      C1815   1.278       .  A
O1806     Cu1813   2.008       .  S
O1806      C1816   1.277       .  A
O1807     Cu1813   1.997       .  S
O1807      C1817   1.276       .  A
O1808     Cu1813   2.006       .  S
O1808      C1818   1.278       .  A
O1809     Cu1814   2.001       .  S
O1809      C1818   1.276       .  A
O1810     Cu1814   1.997       .  S
O1810      C1817   1.277       .  A
O1811     Cu1814   2.004       .  S
O1811      C1816   1.278       .  A
O1812     Cu1814   2.010       .  S
O1812      C1815   1.277       .  A
Cu1813    Cu1814   2.370       .  S
C1815      C2186   1.488       .  S
C1816      C2231   1.481       .  S
C1817      C2200   1.476       .  S
C1818      C2214   1.477       .  S
O1819     Cu1827   2.006       .  S
O1819      C2669   1.279   1_545  A
O1820     Cu1827   2.006   1_556  S
O1820      C1830   1.278       .  A
O1821     Cu1827   2.002       .  S
O1821      C2671   1.278   1_545  A
O1822     Cu1827   1.998   1_556  S
O1822      C1832   1.275       .  A
O1823     Cu1828   2.013       .  S
O1823      C2672   1.279       .  A
O1824     Cu1828   2.006   1_554  S
O1824      C1831   1.278       .  A
O1825     Cu1828   2.001       .  S
O1825      C2670   1.277       .  A
O1826     Cu1828   1.999   1_554  S
O1826      C1829   1.276       .  A
Cu1827    Cu2668   2.370   1_544  S
Cu1828    Cu2667   2.371   1_556  S
C1829      O2659   1.279       .  A
C1829      C2133   1.483       .  S
C1830      O2665   1.275   1_545  A
C1830      C2172   1.472       .  S
C1831      O2661   1.278       .  A
C1831      C2144   1.481       .  S
C1832      O2663   1.279   1_545  A
C1832      C2161   1.483       .  S
C1833      C3281   1.481   1_545  S
C1833      C2674   1.401       .  A
C1833      C1838   1.405       .  A
C1834      C2673   1.403       .  A
C1834      C2675   1.398       .  A
C1834      H1839   1.083       .  S
C1835      C2175   1.471       .  S
C1835      C2674   1.399       .  A
C1835      C1836   1.399       .  A
C1836      C1837   1.401       .  A
C1836      H1840   1.084       .  S
C1837      C2061   1.482       .  S
C1837      C1838   1.403       .  A
C1838      H1841   1.084       .  S
C1842      C2158   1.478       .  S
C1842      C1843   1.402       .  A
C1842      C2687   1.401   1_545  A
C1843      C1844   1.403       .  A
C1843      H1848   1.084       .  S
C1844      C2062   1.481       .  S
C1844      C1845   1.401       .  A
C1845      C1846   1.402       .  A
C1845      H1849   1.084       .  S
C1846      C3351   1.477   1_545  S
C1846      C2687   1.401   1_545  A
C1847      C2682   1.401       .  A
C1847      C2686   1.401       .  A
C1847      H1850   1.084       .  S
O1851     Cu1859   2.006       .  S
O1851      C1861   1.277       .  A
O1852     Cu1859   2.007       .  S
O1852      C1862   1.278       .  A
O1853     Cu1859   2.007       .  S
O1853      C1863   1.276       .  A
O1854     Cu1859   2.008       .  S
O1854      C1864   1.279       .  A
O1855     Cu1860   2.004       .  S
O1855      C1864   1.277       .  A
O1856     Cu1860   2.008       .  S
O1856      C1863   1.277       .  A
O1857     Cu1860   2.021       .  S
O1857      C1862   1.279       .  A
O1858     Cu1860   2.012       .  S
O1858      C1861   1.279       .  A
Cu1859    Cu1860   2.371       .  S
C1861      C2119   1.485       .  S
C1862      C2074   1.489       .  S
C1863      C2105   1.467       .  S
C1864      C2091   1.486       .  S
C1865      C2928   1.479       .  S
C1865      C1866   1.403       .  A
C1865      C2710   1.402       .  A
C1866      C1867   1.403       .  A
C1866      H1871   1.084       .  S
C1867      C1958   1.482       .  S
C1867      C1868   1.402       .  A
C1868      C1869   1.401       .  A
C1868      H1872   1.084       .  S
C1869      C2147   1.476       .  S
C1869      C2710   1.400       .  A
C1870      C2705   1.403   1_545  A
C1870      C2709   1.403   1_545  A
C1870      H1873   1.083       .  S
C1874      C3043   1.474       .  S
C1874      C1875   1.399       .  A
C1874      C2719   1.400       .  A
C1875      C1876   1.401       .  A
C1875      H1880   1.084       .  S
C1876      C1957   1.480       .  S
C1876      C1877   1.403       .  A
C1877      C1878   1.404       .  A
C1877      H1881   1.084       .  S
C1878      C2130   1.480       .  S
C1878      C2719   1.401       .  A
C1879      C2714   1.398       .  A
C1879      C2718   1.398       .  A
C1879      H1882   1.084   1_565  S
C1883      C2259   1.477       .  S
C1883      C1884   1.401       .  A
C1883      C1888   1.402       .  A
C1884      C1885   1.401       .  A
C1884      H1889   1.084       .  S
C1885      C2189   1.481       .  S
C1885      C1886   1.404       .  A
C1886      C1887   1.403       .  A
C1886      H1890   1.083       .  S
C1887      C1960   1.483       .  S
C1887      C1888   1.403       .  A
C1888      H1891   1.084       .  S
C1892      C2242   1.489       .  S
C1892      C1893   1.404       .  A
C1892      C1897   1.406       .  A
C1893      C1894   1.402       .  A
C1893      H1898   1.083       .  S
C1894      C2077   1.486       .  S
C1894      C1895   1.405       .  A
C1895      C1896   1.406       .  A
C1895      H1899   1.084       .  S
C1896      C1959   1.489       .  S
C1896      C1897   1.407       .  A
C1897      H1900   1.084       .  S
C1901      C2956   1.484       .  S
C1901      C2742   1.402       .  A
C1901      C1906   1.404       .  A
C1902      C2741   1.401       .  A
C1902      C2743   1.403       .  A
C1902      H1907   1.084   1_565  S
C1903      C2343   1.486       .  S
C1903      C2742   1.401       .  A
C1903      C1904   1.404       .  A
C1904      C1905   1.406       .  A
C1904      H1908   1.084       .  S
C1905      C1991   1.487       .  S
C1905      C1906   1.405       .  A
C1906      H1909   1.084       .  S
C1910      C3068   1.482       .  S
C1910      C1911   1.402       .  A
C1910      C2755   1.403       .  A
C1911      C1912   1.404       .  A
C1911      H1916   1.083       .  S
C1912      C1992   1.488       .  S
C1912      C1913   1.408       .  A
C1913      C1914   1.405       .  A
C1913      H1917   1.084       .  S
C1914      C2301   1.484       .  S
C1914      C2755   1.403       .  A
C1915      C2750   1.402       .  A
C1915      C2754   1.402       .  A
C1915      H1918   1.084   1_565  S
C1919      C2399   1.489       .  S
C1919      C1920   1.407       .  A
C1919      C1924   1.405       .  A
C1920      C1921   1.405       .  A
C1920      H1925   1.083       .  S
C1921      C1993   1.484       .  S
C1921      C1922   1.401       .  A
C1922      C1923   1.399       .  A
C1922      H1926   1.084       .  S
C1923      C2217   1.473       .  S
C1923      C1924   1.400       .  A
C1924      H1927   1.084       .  S
C1928      C2357   1.482       .  S
C1928      C1929   1.401       .  A
C1928      C1933   1.405       .  A
C1929      C1930   1.402       .  A
C1929      H1934   1.084       .  S
C1930      C2102   1.488       .  S
C1930      C1931   1.406       .  A
C1931      C1932   1.405       .  A
C1931      H1935   1.083       .  S
C1932      C1994   1.489       .  S
C1932      C1933   1.405       .  A
C1933      H1936   1.084       .  S
N1937      H1969   1.038       .  S
N1937      C1941   1.352       .  A
N1938      C1945   1.351       .  A
N1938      C1946   1.351       .  A
N1939      H1970   1.038       .  S
N1939      C1943   1.353       .  A
N1940      C1947   1.352       .  A
N1940      C1948   1.352       .  A
C1941      C1949   1.387       .  A
C1941      C1957   1.414       .  A
C1942      C1958   1.414       .  A
C1942      C1950   1.388       .  A
C1943      C1951   1.387       .  A
C1943      C1960   1.415       .  A
C1944      C1959   1.418       .  A
C1944      C1952   1.387       .  A
C1945      C1957   1.412       .  A
C1945      C1953   1.387       .  A
C1946      C1960   1.411       .  A
C1946      C1954   1.386       .  A
C1947      C1955   1.386       .  A
C1947      C1958   1.413       .  A
C1948      C1956   1.387       .  A
C1948      C1959   1.414       .  A
C1949      H1961   1.082       .  S
C1950      H1962   1.082       .  S
C1951      H1963   1.082       .  S
C1952      H1964   1.082       .  S
C1953      C1954   1.372       .  A
C1953      H1965   1.082       .  S
C1954      H1966   1.082       .  S
C1955      C1956   1.372       .  A
C1955      H1967   1.082       .  S
C1956      H1968   1.082       .  S
N1971      H2003   1.037       .  S
N1971      C1976   1.355       .  A
N1971      C1975   1.354       .  A
N1972      C1979   1.352       .  A
N1972      C1980   1.353       .  A
N1973      H2004   1.037       .  S
N1973      C1978   1.353       .  A
N1973      C1977   1.354       .  A
N1974      C1981   1.352       .  A
N1974      C1982   1.351       .  A
C1975      C1983   1.387       .  A
C1975      C1991   1.418       .  A
C1976      C1992   1.418       .  A
C1976      C1984   1.387       .  A
C1977      C1985   1.387       .  A
C1977      C1994   1.416       .  A
C1978      C1993   1.416       .  A
C1978      C1986   1.387       .  A
C1979      C1991   1.416       .  A
C1979      C1987   1.387       .  A
C1980      C1994   1.415       .  A
C1980      C1988   1.386       .  A
C1981      C1989   1.385       .  A
C1981      C1992   1.413       .  A
C1982      C1990   1.387       .  A
C1982      C1993   1.414       .  A
C1983      C1984   1.375       .  A
C1983      H1995   1.082       .  S
C1984      H1996   1.082       .  S
C1985      C1986   1.376       .  A
C1985      H1997   1.082       .  S
C1986      H1998   1.082       .  S
C1987      C1988   1.372       .  A
C1987      H1999   1.082       .  S
C1988      H2000   1.082       .  S
C1989      C1990   1.372       .  A
C1989      H2001   1.082       .  S
C1990      H2002   1.082       .  S
N2005      H2037   1.038       .  S
N2005      C2010   1.351       .  A
N2005      C2009   1.352       .  A
N2006      C2013   1.352       .  A
N2006      C2014   1.351       .  A
N2007      H2038   1.038       .  S
N2007      C2012   1.355       .  A
N2007      C2011   1.354       .  A
N2008      C2015   1.352       .  A
N2008      C2016   1.352       .  A
C2009      C2017   1.387       .  A
C2009      C2025   1.412       .  A
C2010      C2026   1.412       .  A
C2010      C2018   1.388       .  A
C2011      C2019   1.387       .  A
C2011      C2028   1.416       .  A
C2012      C2027   1.416       .  A
C2012      C2020   1.386       .  A
C2013      C2025   1.412       .  A
C2013      C2021   1.386       .  A
C2014      C2028   1.413       .  A
C2014      C2022   1.387       .  A
C2015      C2023   1.386       .  A
C2015      C2026   1.413       .  A
C2016      C2024   1.386       .  A
C2016      C2027   1.414       .  A
C2017      C2018   1.373       .  A
C2017      H2029   1.083       .  S
C2018      H2030   1.083       .  S
C2019      C2020   1.376       .  A
C2019      H2031   1.082       .  S
C2020      H2032   1.082       .  S
C2021      C2022   1.373       .  A
C2021      H2033   1.082       .  S
C2022      H2034   1.082       .  S
C2023      C2024   1.372       .  A
C2023      H2035   1.082       .  S
C2024      H2036   1.082       .  S
N2039      H2071   1.038       .  S
N2039      C2043   1.351       .  A
N2040      C2047   1.351       .  A
N2040      C2048   1.350       .  A
N2041      H2072   1.038       .  S
N2041      C2045   1.353       .  A
N2042      C2049   1.352       .  A
N2042      C2050   1.351       .  A
C2043      C2051   1.387       .  A
C2043      C2059   1.412       .  A
C2044      C2060   1.416       .  A
C2044      C2052   1.387       .  A
C2045      C2053   1.387       .  A
C2045      C2062   1.415       .  A
C2046      C2061   1.415       .  A
C2046      C2054   1.387       .  A
C2047      C2059   1.411       .  A
C2047      C2055   1.386       .  A
C2048      C2062   1.411       .  A
C2048      C2056   1.387       .  A
C2049      C2057   1.387       .  A
C2049      C2060   1.414       .  A
C2050      C2058   1.387       .  A
C2050      C2061   1.413       .  A
C2051      H2063   1.082       .  S
C2052      H2064   1.082       .  S
C2053      H2065   1.082       .  S
C2054      H2066   1.082       .  S
C2055      C2056   1.371       .  A
C2055      H2067   1.082       .  S
C2056      H2068   1.082       .  S
C2057      C2058   1.372       .  A
C2057      H2069   1.082       .  S
C2058      H2070   1.083       .  S
C2073      C2074   1.406       .  A
C2073      C2078   1.405       .  A
C2073      H2080   1.083       .  S
C2074      C2075   1.416       .  A
C2075      C2076   1.409       .  A
C2075      N2082   1.438       .  S
C2076      C2077   1.403       .  A
C2076      H2081   1.084       .  S
C2077      C2078   1.411       .  A
C2078      N2079   1.438       .  S
N2079      H2083   1.046       .  S
N2079      H2084   1.046       .  S
N2082      H2085   1.046       .  S
N2082      H2086   1.046       .  S
C2087      C2088   1.402       .  A
C2087      C2092   1.406       .  A
C2087      H2094   1.084       .  S
C2088      C2705   1.482   1_545  S
C2088      C2089   1.410       .  A
C2089      C2090   1.403       .  A
C2089      N2096   1.438       .  S
C2090      C2091   1.406       .  A
C2090      H2095   1.083       .  S
C2091      C2092   1.417       .  A
C2092      N2093   1.438       .  S
N2093      H2097   1.046       .  S
N2093      H2098   1.046       .  S
N2096      H2099   1.046   1_545  S
N2096      H2100   1.046       .  S
C2101      C2102   1.407       .  A
C2101      C2106   1.404       .  A
C2101      H2108   1.084       .  S
C2102      C2103   1.415       .  A
C2103      C2104   1.407       .  A
C2103      N2110   1.438       .  S
C2104      C2105   1.399       .  A
C2104      H2109   1.084       .  S
C2105      C2106   1.407       .  A
C2106      N2107   1.438       .  S
N2107      H2111   1.046       .  S
N2107      H2112   1.045       .  S
N2110      H2113   1.046       .  S
N2110      H2114   1.046       .  S
C2115      C2116   1.401       .  A
C2115      C2120   1.405       .  A
C2115      H2122   1.084       .  S
C2116      C2741   1.480   1_545  S
C2116      C2117   1.410       .  A
C2117      C2118   1.405       .  A
C2117      N2124   1.438   1_545  S
C2118      C2119   1.406       .  A
C2118      H2123   1.083       .  S
C2119      C2120   1.417       .  A
C2120      N2121   1.438       .  S
N2121      H2125   1.046       .  S
N2121      H2126   1.045       .  S
N2124      H2127   1.046       .  S
N2124      H2128   1.046   1_565  S
C2129      C2130   1.401       .  A
C2129      C2134   1.402       .  A
C2129      H2136   1.084       .  S
C2130      C2971   1.412       .  A
C2131      C2970   1.408   1_545  A
C2131      C2132   1.400       .  A
C2131      N2138   1.438       .  S
C2132      C2973   1.404   1_545  A
C2132      H2137   1.084       .  S
C2133      C2972   1.405       .  A
C2133      C2134   1.413       .  A
C2134      N2135   1.432       .  S
N2135      H2139   1.046       .  S
N2135      H2140   1.046       .  S
N2138      H2141   1.046       .  S
N2138      H2142   1.046       .  S
C2143      C2144   1.405       .  A
C2143      C2148   1.401       .  A
C2143      H2150   1.084       .  S
C2144      C2985   1.415       .  A
C2145      C2984   1.417       .  A
C2145      C2146   1.404       .  A
C2145      N2152   1.438       .  S
C2146      C2987   1.402       .  A
C2146      H2151   1.084       .  S
C2147      C2986   1.401       .  A
C2147      C2148   1.406       .  A
C2148      N2149   1.433       .  S
N2149      H2153   1.046       .  S
N2149      H2154   1.046       .  S
N2152      H2155   1.046       .  S
N2152      H2156   1.046       .  S
C2157      C2158   1.401       .  A
C2157      C2162   1.399       .  A
C2157      H2164   1.084       .  S
C2158      C2999   1.407   1_545  A
C2159      C2998   1.407       .  A
C2159      C2160   1.401       .  A
C2159      N2166   1.432       .  S
C2160      C3001   1.405       .  A
C2160      H2165   1.084       .  S
C2161      C3000   1.405   1_545  A
C2161      C2162   1.421       .  A
C2162      N2163   1.433       .  S
N2163      H2167   1.045       .  S
N2163      H2168   1.046       .  S
N2166      H2169   1.045       .  S
N2166      H2170   1.046       .  S
C2171      C2172   1.403       .  A
C2171      C2176   1.398       .  A
C2171      H2178   1.084       .  S
C2172      C3013   1.411   1_545  A
C2173      C3012   1.409       .  A
C2173      C2174   1.400       .  A
C2173      N2180   1.432       .  S
C2174      C3015   1.400       .  A
C2174      H2179   1.084       .  S
C2175      C3014   1.400   1_545  A
C2175      C2176   1.413       .  A
C2176      N2177   1.433       .  S
N2177      H2181   1.044       .  S
N2177      H2182   1.046       .  S
N2180      H2183   1.046       .  S
N2180      H2184   1.046       .  S
C2185      C2186   1.408       .  A
C2185      C2190   1.399       .  A
C2185      H2192   1.084       .  S
C2186      C2187   1.419       .  A
C2187      C2188   1.399       .  A
C2187      N2194   1.432       .  S
C2188      C2189   1.403       .  A
C2188      H2193   1.084       .  S
C2189      C2190   1.412       .  A
C2190      N2191   1.433       .  S
N2191      H2195   1.043       .  S
N2191      H2196   1.046       .  S
N2194      H2197   1.045       .  S
N2194      H2198   1.045       .  S
C2199      C2200   1.404       .  A
C2199      C2204   1.397       .  A
C2199      H2206   1.084       .  S
C2200      C2201   1.415       .  A
C2201      C2202   1.403       .  A
C2201      N2208   1.438       .  S
C2202      C2203   1.400       .  A
C2202      H2207   1.084       .  S
C2203      C2714   1.470   1_545  S
C2203      C2204   1.405       .  A
C2204      N2205   1.433       .  S
N2205      H2209   1.046       .  S
N2205      H2210   1.046   1_545  S
N2208      H2211   1.046       .  S
N2208      H2212   1.046       .  S
C2213      C2214   1.404       .  A
C2213      C2218   1.396       .  A
C2213      H2220   1.084       .  S
C2214      C2215   1.415       .  A
C2215      C2216   1.406       .  A
C2215      N2222   1.438       .  S
C2216      C2217   1.400       .  A
C2216      H2221   1.084       .  S
C2217      C2218   1.411       .  A
C2218      N2219   1.433       .  S
N2219      H2223   1.044       .  S
N2219      H2224   1.046       .  S
N2222      H2225   1.045       .  S
N2222      H2226   1.046       .  S
C2227      C2228   1.402       .  A
C2227      C2232   1.399       .  A
C2227      H2234   1.084       .  S
C2228      C2750   1.476   1_545  S
C2228      C2229   1.411       .  A
C2229      C2230   1.397       .  A
C2229      N2236   1.433       .  S
C2230      C2231   1.405       .  A
C2230      H2235   1.084       .  S
C2231      C2232   1.418       .  A
C2232      N2233   1.433       .  S
N2233      H2237   1.044       .  S
N2233      H2238   1.046       .  S
N2236      H2239   1.046       .  S
N2236      H2240   1.044       .  S
C2241      C2242   1.405       .  A
C2241      C2246   1.411       .  A
C2241      H2248   1.084       .  S
C2242      C2243   1.410       .  A
C2243      C2244   1.399       .  A
C2243      N2250   1.433       .  S
C2244      C2245   1.405       .  A
C2244      H2249   1.084       .  S
C2245      C2246   1.418       .  A
C2246      N2247   1.438       .  S
N2247      H2251   1.046       .  S
N2247      H2252   1.046       .  S
N2250      H2253   1.046       .  S
N2250      H2254   1.046       .  S
C2255      C2256   1.406       .  A
C2255      C2260   1.403       .  A
C2255      H2262   1.084       .  S
C2256      C2257   1.418       .  A
C2257      C2258   1.398       .  A
C2257      N2264   1.433       .  S
C2258      C2259   1.402       .  A
C2258      H2263   1.084       .  S
C2259      C2260   1.406       .  A
C2260      N2261   1.432       .  S
N2261      H2265   1.046       .  S
N2261      H2266   1.046       .  S
N2264      H2267   1.046       .  S
N2264      H2268   1.044       .  S
C2269      C2270   1.406       .  A
C2269      C2274   1.406       .  A
C2269      H2276   1.083       .  S
C2270      C2271   1.413       .  A
C2271      C2272   1.402       .  A
C2271      N2278   1.432       .  S
C2272      C2273   1.401       .  A
C2272      H2277   1.084       .  S
C2273      C2274   1.412       .  A
C2274      N2275   1.438       .  S
N2275      H2279   1.046       .  S
N2275      H2280   1.046       .  S
N2278      H2281   1.046       .  S
N2278      H2282   1.046       .  S
C2283      C2284   1.404       .  A
C2283      C2288   1.399       .  A
C2283      H2290   1.084       .  S
C2284      C2285   1.415       .  A
C2285      C2286   1.405       .  A
C2285      N2292   1.433       .  S
C2286      C2287   1.403       .  A
C2286      H2291   1.084       .  S
C2287      C2288   1.408       .  A
C2288      N2289   1.433       .  S
N2289      H2293   1.046       .  S
N2289      H2294   1.046       .  S
N2292      H2295   1.046       .  S
N2292      H2296   1.046       .  S
C2297      C2298   1.405       .  A
C2297      C2302   1.402       .  A
C2297      H2304   1.084       .  S
C2298      C2299   1.412       .  A
C2299      C2300   1.406       .  A
C2299      N3146   1.432       .  S
C2300      C2301   1.402       .  A
C2300      H2305   1.084       .  S
C2301      C2302   1.414       .  A
C2302      N2303   1.433       .  S
N2303      H2307   1.046       .  S
N2303      H2308   1.044       .  S
N2306      C3139   1.432       .  S
N2306      H2309   1.046       .  S
N2306      H2310   1.046       .  S
C2311      C3152   1.403       .  A
C2311      C2316   1.400       .  A
C2311      H2318   1.084       .  S
C2312      C3151   1.406   1_545  A
C2312      C2313   1.417       .  A
C2313      C2314   1.408       .  A
C2313      N2320   1.438       .  S
C2314      C2315   1.403       .  A
C2314      H2319   1.084       .  S
C2315      C3156   1.418   1_545  A
C2316      C3155   1.417       .  A
C2316      N2317   1.440       .  S
N2317      H2321   1.046       .  S
N2317      H2322   1.042       .  S
N2320      H2323   1.046       .  S
N2320      H2324   1.046       .  S
C2325      C3166   1.404       .  A
C2325      C2330   1.397       .  A
C2325      H2332   1.084       .  S
C2326      C3165   1.404   1_545  A
C2326      C2327   1.412       .  A
C2327      C2328   1.405       .  A
C2327      N2334   1.432       .  S
C2328      C2329   1.403       .  A
C2328      H2333   1.084       .  S
C2329      C3170   1.413   1_545  A
C2330      C3169   1.413       .  A
C2330      N2331   1.433       .  S
N2331      H2335   1.043       .  S
N2331      H2336   1.046       .  S
N2334      H2337   1.046       .  S
N2334      H2338   1.046       .  S
C2339      C3180   1.407   1_545  A
C2339      C2344   1.405       .  A
C2339      H2346   1.083       .  S
C2340      C3179   1.406       .  A
C2340      C2341   1.420       .  A
C2341      C2342   1.408       .  A
C2341      N2348   1.438       .  S
C2342      C2343   1.402       .  A
C2342      H2347   1.084       .  S
C2343      C3184   1.411       .  A
C2344      C3183   1.412   1_545  A
C2344      N2345   1.438       .  S
N2345      H2349   1.046       .  S
N2345      H2350   1.046       .  S
N2348      H2351   1.045       .  S
N2348      H2352   1.046       .  S
C2353      C2354   1.404       .  A
C2353      C2358   1.400       .  A
C2353      H2360   1.084       .  S
C2354      C2355   1.419       .  A
C2355      C2356   1.408       .  A
C2355      N2362   1.438       .  S
C2356      C2357   1.402       .  A
C2356      H2361   1.084       .  S
C2357      C2358   1.409       .  A
C2358      N2359   1.433       .  S
N2359      H2363   1.046       .  S
N2359      H2364   1.046       .  S
N2362      H2365   1.045       .  S
N2362      H2366   1.046       .  S
C2367      C2368   1.406       .  A
C2367      C2372   1.402       .  A
C2367      H2374   1.084       .  S
C2368      C2369   1.413       .  A
C2369      C2370   1.404       .  A
C2369      N2376   1.438       .  S
C2370      C2371   1.403       .  A
C2370      H2375   1.084       .  S
C2371      C2372   1.416       .  A
C2372      N2373   1.440       .  S
N2373      H2377   1.046       .  S
N2373      H2378   1.042       .  S
N2376      H2379   1.046       .  S
N2376      H2380   1.046       .  S
C2381      C2382   1.403       .  A
C2381      C2386   1.411       .  A
C2381      H2388   1.084       .  S
C2382      C2383   1.407       .  A
C2383      C2384   1.405       .  A
C2383      N2390   1.438       .  S
C2384      C2385   1.405       .  A
C2384      H2389   1.084       .  S
C2385      C2386   1.414       .  A
C2386      N2387   1.437       .  S
N2387      H2391   1.046       .  S
N2387      H2392   1.046       .  S
N2390      H2393   1.046       .  S
N2390      H2394   1.046       .  S
C2395      C2396   1.399       .  A
C2395      C2400   1.406       .  A
C2395      H2402   1.084       .  S
C2396      C2397   1.407       .  A
C2397      C2398   1.404       .  A
C2397      N2404   1.438       .  S
C2398      C2399   1.408       .  A
C2398      H2403   1.083       .  S
C2399      C2400   1.415       .  A
C2400      N2401   1.438       .  S
N2401      H2405   1.046       .  S
N2401      H2406   1.046       .  S
N2404      H2407   1.045       .  S
N2404      H2408   1.046       .  S
C2409      C2410   1.401       .  A
C2409      C2414   1.396       .  A
C2409      H2416   1.084       .  S
C2410      C2411   1.412       .  A
C2411      C2412   1.397       .  A
C2411      N2418   1.433       .  S
C2412      C2413   1.404       .  A
C2412      H2417   1.084       .  S
C2413      C2414   1.417       .  A
C2414      N2415   1.433       .  S
N2415      H2419   1.044       .  S
N2415      H2420   1.046       .  S
N2418      H2421   1.046       .  S
N2418      H2422   1.044       .  S
C2423      C2424   1.406       .  A
C2423      C2428   1.400       .  A
C2423      H2430   1.084       .  S
C2424      C2425   1.420       .  A
C2425      C2426   1.399       .  A
C2425      N2432   1.432       .  S
C2426      C2427   1.400       .  A
C2426      H2431   1.084       .  S
C2427      C2428   1.406       .  A
C2428      N2429   1.433       .  S
N2429      H2433   1.046       .  S
N2429      H2434   1.046       .  S
N2432      H2435   1.045       .  S
N2432      H2436   1.046       .  S
C2437      C2438   1.405       .  A
C2437      C2442   1.399       .  A
C2437      H2444   1.084       .  S
C2438      C2439   1.418       .  A
C2439      C2440   1.405       .  A
C2439      N2446   1.438       .  S
C2440      C2441   1.403       .  A
C2440      H2445   1.083       .  S
C2441      C2673   1.485       .  S
C2441      C2442   1.411       .  A
C2442      N2443   1.433       .  S
N2443      H2447   1.046       .  S
N2443      H2448   1.046       .  S
N2446      H2449   1.046       .  S
N2446      H2450   1.046       .  S
C2451      C2452   1.405       .  A
C2451      C2456   1.399       .  A
C2451      H2458   1.083       .  S
C2452      C2453   1.418       .  A
C2453      C2454   1.409       .  A
C2453      N2460   1.438       .  S
C2454      C2455   1.406       .  A
C2454      H2459   1.083       .  S
C2455      C2599   1.493       .  S
C2455      C2456   1.412       .  A
C2456      N3297   1.433       .  S
N2457      C3296   1.438   1_545  S
N2457      H2461   1.046       .  S
N2457      H2462   1.046       .  S
N2460      H2463   1.046       .  S
N2460      H2464   1.046       .  S
C2465      C2466   1.403       .  A
C2465      C2470   1.403       .  A
C2465      H2472   1.084       .  S
C2466      C2467   1.417       .  A
C2467      C2468   1.401       .  A
C2467      N2474   1.440       .  S
C2468      C2469   1.404       .  A
C2468      H2473   1.084       .  S
C2469      C2470   1.411       .  A
C2470      N2471   1.433       .  S
N2471      H2475   1.046       .  S
N2471      H2476   1.046       .  S
N2474      H2477   1.043       .  S
N2474      H2478   1.046       .  S
C2479      C2480   1.407       .  A
C2479      C2484   1.403       .  A
C2479      H2486   1.084       .  S
C2480      C2481   1.413       .  A
C2481      C2482   1.403       .  A
C2481      N2488   1.432       .  S
C2482      C2483   1.403       .  A
C2482      H2487   1.084       .  S
C2483      C2484   1.416       .  A
C2484      N2485   1.433       .  S
N2485      H2489   1.043       .  S
N2485      H2490   1.046       .  S
N2488      H2491   1.046       .  S
N2488      H2492   1.046       .  S
C2493      C2494   1.406       .  A
C2493      C2498   1.405       .  A
C2493      H2500   1.083       .  S
C2494      C2495   1.416       .  A
C2495      C2496   1.406       .  A
C2495      N2502   1.438       .  S
C2496      C2497   1.404       .  A
C2496      H2501   1.084       .  S
C2497      C2608   1.486       .  S
C2497      C2498   1.411       .  A
C2498      N2499   1.438       .  S
N2499      H2503   1.046       .  S
N2499      H3344   1.046       .  S
N2502      H2505   1.046       .  S
N2502      H2506   1.046       .  S
H2504      N3339   1.046   1_545  S
C2507      C2508   1.404       .  A
C2507      C2512   1.403       .  A
C2507      H2514   1.083       .  S
C2508      C2509   1.417       .  A
C2509      C2510   1.407       .  A
C2509      N2516   1.438       .  S
C2510      C2511   1.401       .  A
C2510      H2515   1.084       .  S
C2511      C2686   1.478       .  S
C2511      C2512   1.409       .  A
C2512      N2513   1.438       .  S
N2513      H2517   1.046       .  S
N2513      H2518   1.046       .  S
N2516      H2519   1.046       .  S
N2516      H2520   1.046       .  S
O2521     Cu2529   2.004       .  S
O2521      C2531   1.278       .  A
O2522     Cu2529   2.006       .  S
O2522      C2532   1.277       .  A
O2523     Cu2529   2.009       .  S
O2523      C2533   1.279       .  A
O2524     Cu2529   2.009       .  S
O2524      C2534   1.278       .  A
O2525     Cu2530   2.004       .  S
O2525      C2534   1.278       .  A
O2526     Cu2530   2.001       .  S
O2526      C2533   1.276       .  A
O2527     Cu2530   1.999       .  S
O2527      C2532   1.277       .  A
O2528     Cu2530   1.997       .  S
O2528      C2531   1.276       .  A
Cu2529    Cu2530   2.370       .  S
C2531      C3348   1.480       .  S
C2532      C3320   1.474       .  S
C2533      C3309   1.484       .  S
C2534      C3334   1.484       .  S
O2535     Cu2543   1.998       .  S
O2535      C2545   1.278       .  A
O2536     Cu2543   1.998       .  S
O2536      C2546   1.275       .  A
O2537     Cu2543   2.006       .  S
O2537      C2547   1.279       .  A
O2538     Cu2543   2.008       .  S
O2538      C2548   1.278       .  A
O2539     Cu2544   2.004       .  S
O2539      C2548   1.277       .  A
O2540     Cu2544   2.003       .  S
O2540      C2547   1.277       .  A
O2541     Cu2544   2.001       .  S
O2541      C2546   1.276       .  A
O2542     Cu2544   1.997       .  S
O2542      C2545   1.275       .  A
Cu2543    Cu2544   2.371       .  S
C2545      C3264   1.480       .  S
C2546      C3292   1.460       .  S
C2547      C3278   1.486       .  S
C2548      C3253   1.483       .  S
O2549     Cu2557   2.006   1_655  S
O2549      C2559   1.276       .  A
O2550      C2560   1.279       .  A
O2551      C2561   1.278       .  A
O2552     Cu2557   2.007   1_655  S
O2552      C2562   1.278       .  A
O2553     Cu2558   2.014   1_655  S
O2553      C2562   1.278       .  A
O2554      C2561   1.277       .  A
O2555      C2560   1.278       .  A
O2556     Cu2558   2.006   1_655  S
O2556      C2559   1.277       .  A
Cu2557    Cu2558   2.370       .  S
C2559      C3222   1.466       .  S
C2560      C3194   1.493       .  S
C2561      C3208   1.481       .  S
C2562      C3236   1.487       .  S
C2563      C3323   1.472       .  S
C2563      C2564   1.398       .  A
C2563      C2568   1.401       .  A
C2564      C2565   1.400       .  A
C2564      H2569   1.084       .  S
C2565      C2867   1.481       .  S
C2565      C2566   1.403       .  A
C2566      C2567   1.405       .  A
C2566      H2570   1.084       .  S
C2567      C3225   1.485       .  S
C2567      C2568   1.404       .  A
C2568      H2571   1.084       .  S
C2572      C3211   1.478       .  S
C2572      C2573   1.402       .  A
C2572      C2577   1.400       .  A
C2573      C2574   1.402       .  A
C2573      H2578   1.084       .  S
C2574      C2866   1.483       .  S
C2574      C2575   1.405       .  A
C2575      C2576   1.404       .  A
C2575      H2579   1.083       .  S
C2576      C3250   1.481       .  S
C2576      C2577   1.401       .  A
C2577      H2580   1.084       .  S
O2581     Cu2589   2.020   1_655  S
O2582      C2592   1.277       .  A
O2584     Cu2589   2.015   1_655  S
O2584      C2594   1.279       .  A
O2585     Cu2590   2.026   1_655  S
O2586      C2593   1.277       .  A
O2588     Cu2590   2.008   1_655  S
O2588      C2591   1.277       .  A
C2591      C3152   1.484       .  S
C2592      C3180   1.493       .  S
C2593      C3166   1.477       .  S
C2594      C3138   1.479       .  S
C2595      C3169   1.477       .  S
C2595      C2596   1.399       .  A
C2596      C2597   1.400       .  A
C2596      H2601   1.084       .  S
C2597      C2865   1.483       .  S
C2597      C2598   1.405       .  A
C2598      C2599   1.408       .  A
C2598      H2602   1.083       .  S
C2600      H2603   1.084       .  S
C2604      C3155   1.481       .  S
C2604      C2605   1.402       .  A
C2605      C2606   1.404       .  A
C2605      H2610   1.084       .  S
C2606      C2868   1.484       .  S
C2606      C2607   1.402       .  A
C2607      C2608   1.404       .  A
C2607      H2611   1.084       .  S
C2609      H2612   1.084   1_545  S
O2613     Cu2621   2.008       .  S
O2613      C2623   1.279       .  A
O2614     Cu2621   2.010   1_554  S
O2614      C2624   1.278       .  A
O2615     Cu2621   2.001       .  S
O2615      C2625   1.278       .  A
O2616     Cu2621   2.002   1_554  S
O2616      C2626   1.277       .  A
O2617     Cu2622   2.006       .  S
O2617      C2626   1.278       .  A
O2618     Cu2622   2.002   1_556  S
O2618      C2625   1.276       .  A
O2619     Cu2622   2.009       .  S
O2619      C2624   1.277       .  A
O2620     Cu2622   2.004   1_556  S
O2620      C2623   1.277       .  A
Cu2621    Cu2622   2.368   1_556  S
C2623      C3110   1.483       .  S
C2624      C3096   1.489       .  S
C2625      C3124   1.480       .  S
C2626      C3085   1.483       .  S
C2627      C3306   1.482       .  S
C2627      C2628   1.404       .  A
C2627      C2632   1.402       .  A
C2628      C2629   1.403       .  A
C2628      H2633   1.084       .  S
C2629      C2899   1.482       .  S
C2629      C2630   1.403       .  A
C2630      C2631   1.401       .  A
C2630      H2634   1.084       .  S
C2631      C3127   1.475       .  S
C2631      C2632   1.400       .  A
C2632      H2635   1.084       .  S
C2636      C3267   1.474       .  S
C2636      C2637   1.401       .  A
C2636      C2641   1.400       .  A
C2637      C2638   1.401       .  A
C2637      H2642   1.084       .  S
C2638      C2900   1.479       .  S
C2638      C2639   1.403       .  A
C2639      C2640   1.403       .  A
C2639      H2643   1.084       .  S
C2640      C3113   1.479       .  S
C2640      C2641   1.400       .  A
C2641      H2644   1.084       .  S
O2645     Cu2653   2.012       .  S
O2645      C2655   1.278       .  A
O2646     Cu2653   2.013       .  S
O2646      C2656   1.278       .  A
O2647     Cu2653   1.998       .  S
O2647      C2657   1.276       .  A
O2648     Cu2653   2.001       .  S
O2648      C2658   1.278       .  A
O2649     Cu2654   2.003       .  S
O2649      C2658   1.277       .  A
O2650     Cu2654   2.005       .  S
O2650      C2657   1.278       .  A
O2651     Cu2654   2.009       .  S
O2651      C2656   1.278       .  A
O2652     Cu2654   2.009       .  S
O2652      C2655   1.277       .  A
Cu2653    Cu2654   2.369       .  S
C2655      C3026   1.484       .  S
C2656      C3071   1.488       .  S
C2657      C3040   1.479       .  S
C2658      C3054   1.482       .  S
O2659     Cu2667   2.007       .  S
O2660     Cu2667   2.001   1_556  S
O2660      C2670   1.277       .  A
O2661     Cu2667   2.007       .  S
O2662     Cu2667   2.002   1_556  S
O2662      C2672   1.276       .  A
O2663     Cu2668   2.005       .  S
O2664     Cu2668   2.002   1_554  S
O2664      C2671   1.277       .  A
O2665     Cu2668   1.986       .  S
O2666     Cu2668   1.986   1_554  S
O2666      C2669   1.274       .  A
C2669      C2973   1.477       .  S
C2670      C3012   1.471       .  S
C2671      C2984   1.486       .  S
C2672      C3001   1.483       .  S
C2673      C2678   1.406       .  A
C2674      H2679   1.084   1_545  S
C2675      C3015   1.470       .  S
C2675      C2676   1.398       .  A
C2676      C2677   1.400       .  A
C2676      H2680   1.084       .  S
C2677      C2901   1.479       .  S
C2677      C2678   1.402       .  A
C2678      H2681   1.084       .  S
C2682      C2998   1.478       .  S
C2682      C2683   1.403       .  A
C2683      C2684   1.406       .  A
C2683      H2688   1.084       .  S
C2684      C2902   1.485       .  S
C2684      C2685   1.404       .  A
C2685      C2686   1.402       .  A
C2685      H2689   1.084       .  S
C2687      H2690   1.084       .  S
O2691     Cu2699   2.005       .  S
O2691      C2701   1.277       .  A
O2692     Cu2699   2.002       .  S
O2692      C2702   1.278       .  A
O2693     Cu2699   2.004       .  S
O2693      C2703   1.276       .  A
O2694     Cu2699   2.000       .  S
O2694      C2704   1.278       .  A
O2695     Cu2700   2.006       .  S
O2695      C2704   1.277       .  A
O2696     Cu2700   2.009       .  S
O2696      C2703   1.277       .  A
O2697     Cu2700   2.017       .  S
O2697      C2702   1.279       .  A
O2698     Cu2700   2.013       .  S
O2698      C2701   1.280       .  A
Cu2699    Cu2700   2.371       .  S
C2701      C2959   1.487       .  S
C2702      C2914   1.487       .  S
C2703      C2945   1.466       .  S
C2704      C2931   1.482       .  S
C2705      C2706   1.403       .  A
C2706      C2707   1.402       .  A
C2706      H2711   1.084       .  S
C2707      C2798   1.480       .  S
C2707      C2708   1.400       .  A
C2708      C2709   1.403       .  A
C2708      H2712   1.084       .  S
C2709      C2987   1.482       .  S
C2710      H2713   1.084       .  S
C2714      C2715   1.399       .  A
C2715      C2716   1.401       .  A
C2715      H2720   1.084       .  S
C2716      C2797   1.476       .  S
C2716      C2717   1.402       .  A
C2717      C2718   1.400       .  A
C2717      H2721   1.084       .  S
C2718      C2970   1.470       .  S
C2719      H2722   1.084       .  S
C2723      C3099   1.485       .  S
C2723      C2724   1.405       .  A
C2723      C2728   1.405       .  A
C2724      C2725   1.402       .  A
C2724      H2729   1.084       .  S
C2725      C3029   1.479       .  S
C2725      C2726   1.401       .  A
C2726      C2727   1.402       .  A
C2726      H2730   1.084       .  S
C2727      C2800   1.484       .  S
C2727      C2728   1.405       .  A
C2728      H2731   1.084       .  S
C2732      C3082   1.479       .  S
C2732      C2733   1.402       .  A
C2732      C2737   1.402       .  A
C2733      C2734   1.403       .  A
C2733      H2738   1.084       .  S
C2734      C2917   1.484       .  S
C2734      C2735   1.404       .  A
C2735      C2736   1.405       .  A
C2735      H2739   1.084       .  S
C2736      C2799   1.485       .  S
C2736      C2737   1.403       .  A
C2737      H2740   1.084       .  S
C2741      C2746   1.403       .  A
C2742      H2747   1.084       .  S
C2743      C3183   1.487       .  S
C2743      C2744   1.406       .  A
C2744      C2745   1.405       .  A
C2744      H2748   1.084       .  S
C2745      C2831   1.485       .  S
C2745      C2746   1.403       .  A
C2746      H2749   1.084       .  S
C2750      C2751   1.400       .  A
C2751      C2752   1.401       .  A
C2751      H2756   1.084       .  S
C2752      C2832   1.481       .  S
C2752      C2753   1.402       .  A
C2753      C2754   1.402       .  A
C2753      H2757   1.084       .  S
C2754      C3141   1.476       .  S
C2755      H2758   1.084       .  S
C2759      C3239   1.485       .  S
C2759      C2760   1.404       .  A
C2759      C2764   1.403       .  A
C2760      C2761   1.405       .  A
C2760      H2765   1.084       .  S
C2761      C2833   1.486       .  S
C2761      C2762   1.403       .  A
C2762      C2763   1.402       .  A
C2762      H2766   1.084       .  S
C2763      C3057   1.479       .  S
C2763      C2764   1.401       .  A
C2764      H2767   1.083       .  S
C2768      C3197   1.487       .  S
C2768      C2769   1.404       .  A
C2768      C2773   1.405       .  A
C2769      C2770   1.403       .  A
C2769      H2774   1.084       .  S
C2770      C2942   1.483       .  S
C2770      C2771   1.403       .  A
C2771      C2772   1.403       .  A
C2771      H2775   1.084       .  S
C2772      C2834   1.486       .  S
C2772      C2773   1.406       .  A
C2773      H2776   1.084       .  S
N2777      H2809   1.038       .  S
N2777      C2781   1.351       .  A
N2778      C2785   1.349       .  A
N2778      C2786   1.351       .  A
N2779      H2810   1.038       .  S
N2779      C2783   1.354       .  A
N2780      C2787   1.352       .  A
N2780      C2788   1.352       .  A
C2781      C2789   1.388       .  A
C2781      C2797   1.414       .  A
C2782      C2798   1.412       .  A
C2782      C2790   1.387       .  A
C2783      C2791   1.386       .  A
C2783      C2800   1.415       .  A
C2784      C2799   1.415       .  A
C2784      C2792   1.387       .  A
C2785      C2797   1.411       .  A
C2785      C2793   1.387       .  A
C2786      C2800   1.411       .  A
C2786      C2794   1.386       .  A
C2787      C2795   1.386       .  A
C2787      C2798   1.413       .  A
C2788      C2796   1.387       .  A
C2788      C2799   1.414       .  A
C2789      H2801   1.082       .  S
C2790      H2802   1.082       .  S
C2791      H2803   1.082       .  S
C2792      H2804   1.082       .  S
C2793      C2794   1.371       .  A
C2793      H2805   1.082       .  S
C2794      H2806   1.082       .  S
C2795      C2796   1.372       .  A
C2795      H2807   1.082       .  S
C2796      H2808   1.082       .  S
N2811      H2843   1.036       .  S
N2811      C2816   1.352       .  A
N2811      C2815   1.354       .  A
N2812      C2819   1.352       .  A
N2812      C2820   1.351       .  A
N2813      H2844   1.037       .  S
N2813      C2818   1.354       .  A
N2813      C2817   1.355       .  A
N2814      C2821   1.352       .  A
N2814      C2822   1.352       .  A
C2815      C2823   1.387       .  A
C2815      C2831   1.415       .  A
C2816      C2832   1.415       .  A
C2816      C2824   1.388       .  A
C2817      C2825   1.387       .  A
C2817      C2834   1.418       .  A
C2818      C2833   1.418       .  A
C2818      C2826   1.387       .  A
C2819      C2831   1.414       .  A
C2819      C2827   1.386       .  A
C2820      C2834   1.414       .  A
C2820      C2828   1.387       .  A
C2821      C2829   1.387       .  A
C2821      C2832   1.414       .  A
C2822      C2830   1.386       .  A
C2822      C2833   1.413       .  A
C2823      C2824   1.375       .  A
C2823      H2835   1.082       .  S
C2824      H2836   1.083       .  S
C2825      C2826   1.374       .  A
C2825      H2837   1.082       .  S
C2826      H2838   1.082       .  S
C2827      C2828   1.371       .  A
C2827      H2839   1.082       .  S
C2828      H2840   1.082       .  S
C2829      C2830   1.371       .  A
C2829      H2841   1.082       .  S
C2830      H2842   1.082       .  S
N2845      H2877   1.037       .  S
N2845      C2850   1.354       .  A
N2845      C2849   1.353       .  A
N2846      C2853   1.352       .  A
N2846      C2854   1.353       .  A
N2847      H2878   1.038       .  S
N2847      C2852   1.352       .  A
N2847      C2851   1.352       .  A
N2848      C2855   1.351       .  A
N2848      C2856   1.351       .  A
C2849      C2857   1.387       .  A
C2849      C2865   1.416       .  A
C2850      C2866   1.416       .  A
C2850      C2858   1.387       .  A
C2851      C2859   1.387       .  A
C2851      C2868   1.412       .  A
C2852      C2867   1.413       .  A
C2852      C2860   1.387       .  A
C2853      C2865   1.415       .  A
C2853      C2861   1.387       .  A
C2854      C2868   1.413       .  A
C2854      C2862   1.386       .  A
C2855      C2863   1.387       .  A
C2855      C2866   1.412       .  A
C2856      C2864   1.387       .  A
C2856      C2867   1.412       .  A
C2857      C2858   1.375       .  A
C2857      H2869   1.082       .  S
C2858      H2870   1.082       .  S
C2859      C2860   1.372       .  A
C2859      H2871   1.082       .  S
C2860      H2872   1.082       .  S
C2861      C2862   1.372       .  A
C2861      H2873   1.082       .  S
C2862      H2874   1.082       .  S
C2863      C2864   1.371       .  A
C2863      H2875   1.082       .  S
C2864      H2876   1.082       .  S
N2879      H2911   1.037       .  S
N2879      C2883   1.352       .  A
N2880      C2887   1.352       .  A
N2880      C2888   1.351       .  A
N2881      H2912   1.038       .  S
N2881      C2885   1.353       .  A
N2882      C2889   1.350       .  A
N2882      C2890   1.350       .  A
C2883      C2891   1.388       .  A
C2883      C2899   1.414       .  A
C2884      C2900   1.414       .  A
C2884      C2892   1.387       .  A
C2885      C2893   1.387       .  A
C2885      C2902   1.416       .  A
C2886      C2901   1.414       .  A
C2886      C2894   1.388       .  A
C2887      C2899   1.413       .  A
C2887      C2895   1.386       .  A
C2888      C2902   1.413       .  A
C2888      C2896   1.386       .  A
C2889      C2897   1.387       .  A
C2889      C2900   1.411       .  A
C2890      C2898   1.386       .  A
C2890      C2901   1.411       .  A
C2891      H2903   1.083       .  S
C2892      H2904   1.082       .  S
C2893      H2905   1.082       .  S
C2894      H2906   1.082       .  S
C2895      C2896   1.372       .  A
C2895      H2907   1.082       .  S
C2896      H2908   1.082       .  S
C2897      C2898   1.372       .  A
C2897      H2909   1.082       .  S
C2898      H2910   1.083       .  S
C2913      C2914   1.406       .  A
C2913      C2918   1.403       .  A
C2913      H2920   1.083       .  S
C2914      C2915   1.416       .  A
C2915      C2916   1.409       .  A
C2915      N2922   1.438       .  S
C2916      C2917   1.403       .  A
C2916      H2921   1.084       .  S
C2917      C2918   1.411       .  A
C2918      N2919   1.438       .  S
N2919      H2923   1.046       .  S
N2919      H2924   1.046       .  S
N2922      H2925   1.046       .  S
N2922      H2926   1.046       .  S
C2927      C2928   1.402       .  A
C2927      C2932   1.407       .  A
C2927      H2934   1.084       .  S
C2928      C2929   1.409       .  A
C2929      C2930   1.401       .  A
C2929      N2936   1.438       .  S
C2930      C2931   1.405       .  A
C2930      H2935   1.084       .  S
C2931      C2932   1.416       .  A
C2932      N2933   1.438       .  S
N2933      H2937   1.046       .  S
N2933      H2938   1.046       .  S
N2936      H2939   1.046       .  S
N2936      H2940   1.046       .  S
C2941      C2942   1.405       .  A
C2941      C2946   1.403       .  A
C2941      H2948   1.084       .  S
C2942      C2943   1.414       .  A
C2943      C2944   1.407       .  A
C2943      N2950   1.438       .  S
C2944      C2945   1.401       .  A
C2944      H2949   1.084       .  S
C2945      C2946   1.406       .  A
C2946      N2947   1.438       .  S
N2947      H2951   1.046       .  S
N2947      H2952   1.046       .  S
N2950      H2953   1.046       .  S
N2950      H2954   1.046       .  S
C2955      C2956   1.402       .  A
C2955      C2960   1.408       .  A
C2955      H2962   1.084       .  S
C2956      C2957   1.411       .  A
C2957      C2958   1.403       .  A
C2957      N2964   1.438       .  S
C2958      C2959   1.405       .  A
C2958      H2963   1.083       .  S
C2959      C2960   1.418       .  A
C2960      N2961   1.438       .  S
N2961      H2965   1.046       .  S
N2961      H2966   1.045       .  S
N2964      H2967   1.046       .  S
N2964      H2968   1.046       .  S
C2969      C2970   1.399       .  A
C2969      C2974   1.403       .  A
C2969      H2976   1.084       .  S
C2971      C2972   1.404       .  A
C2971      N2978   1.438       .  S
C2972      H2977   1.083       .  S
C2973      C2974   1.417       .  A
C2974      N2975   1.438       .  S
N2975      H2979   1.046       .  S
N2975      H2980   1.045       .  S
N2978      H2981   1.046       .  S
N2978      H2982   1.046       .  S
C2983      C2984   1.407   1_545  A
C2983      C2988   1.400       .  A
C2983      H2990   1.084       .  S
C2985      C2986   1.406       .  A
C2985      N2992   1.438       .  S
C2986      H2991   1.084       .  S
C2987      C2988   1.408   1_565  A
C2988      N2989   1.433       .  S
N2989      H2993   1.046       .  S
N2989      H2994   1.046       .  S
N2992      H2995   1.046       .  S
N2992      H2996   1.046       .  S
C2997      C2998   1.401       .  A
C2997      C3002   1.401       .  A
C2997      H3004   1.084       .  S
C2999      C3000   1.399       .  A
C2999      N3006   1.433       .  S
C3000      H3005   1.084       .  S
C3001      C3002   1.420       .  A
C3002      N3003   1.433       .  S
N3003      H3007   1.045       .  S
N3003      H3008   1.046       .  S
N3006      H3009   1.046       .  S
N3006      H3010   1.046       .  S
C3011      C3012   1.403       .  A
C3011      C3016   1.397       .  A
C3011      H3018   1.084       .  S
C3013      C3014   1.398       .  A
C3013      N3020   1.433       .  S
C3014      H3019   1.084       .  S
C3015      C3016   1.411       .  A
C3016      N3017   1.433       .  S
N3017      H3021   1.045       .  S
N3017      H3022   1.046       .  S
N3020      H3023   1.046       .  S
N3020      H3024   1.046       .  S
C3025      C3026   1.406       .  A
C3025      C3030   1.400       .  A
C3025      H3032   1.084       .  S
C3026      C3027   1.418       .  A
C3027      C3028   1.399       .  A
C3027      N3034   1.433       .  S
C3028      C3029   1.401       .  A
C3028      H3033   1.084       .  S
C3029      C3030   1.412       .  A
C3030      N3031   1.433       .  S
N3031      H3035   1.044       .  S
N3031      H3036   1.046       .  S
N3034      H3037   1.046       .  S
N3034      H3038   1.044       .  S
C3039      C3040   1.404       .  A
C3039      C3044   1.398       .  A
C3039      H3046   1.084       .  S
C3040      C3041   1.416       .  A
C3041      C3042   1.406       .  A
C3041      N3048   1.438       .  S
C3042      C3043   1.401       .  A
C3042      H3047   1.084       .  S
C3043      C3044   1.406       .  A
C3044      N3045   1.433       .  S
N3045      H3049   1.046       .  S
N3045      H3050   1.046       .  S
N3048      H3051   1.046       .  S
N3048      H3052   1.046       .  S
C3053      C3054   1.405       .  A
C3053      C3058   1.396       .  A
C3053      H3060   1.084       .  S
C3054      C3055   1.413       .  A
C3055      C3056   1.403       .  A
C3055      N3062   1.432       .  S
C3056      C3057   1.403       .  A
C3056      H3061   1.084       .  S
C3057      C3058   1.414       .  A
C3058      N3059   1.434       .  S
N3059      H3063   1.043       .  S
N3059      H3064   1.045       .  S
N3062      H3065   1.046       .  S
N3062      H3066   1.046       .  S
C3067      C3068   1.402       .  A
C3067      C3072   1.399       .  A
C3067      H3074   1.084       .  S
C3068      C3069   1.413       .  A
C3069      C3070   1.401       .  A
C3069      N3076   1.433       .  S
C3070      C3071   1.408       .  A
C3070      H3075   1.084       .  S
C3071      C3072   1.419       .  A
C3072      N3073   1.432       .  S
N3073      H3077   1.044       .  S
N3073      H3078   1.046       .  S
N3076      H3079   1.046       .  S
N3076      H3080   1.044       .  S
C3081      C3082   1.402       .  A
C3081      C3086   1.406       .  A
C3081      H3088   1.084       .  S
C3082      C3083   1.407       .  A
C3083      C3084   1.400       .  A
C3083      N3090   1.433       .  S
C3084      C3085   1.405       .  A
C3084      H3089   1.084       .  S
C3085      C3086   1.417       .  A
C3086      N3087   1.438       .  S
N3087      H3091   1.046       .  S
N3087      H3092   1.046       .  S
N3090      H3093   1.046       .  S
N3090      H3094   1.046       .  S
C3095      C3096   1.408       .  A
C3095      C3100   1.405       .  A
C3095      H3102   1.084       .  S
C3096      C3097   1.420       .  A
C3097      C3098   1.399       .  A
C3097      N3104   1.433       .  S
C3098      C3099   1.403       .  A
C3098      H3103   1.084       .  S
C3099      C3100   1.408       .  A
C3100      N3101   1.432       .  S
N3101      H3105   1.046       .  S
N3101      H3106   1.046       .  S
N3104      H3107   1.046       .  S
N3104      H3108   1.044       .  S
C3109      C3110   1.404       .  A
C3109      C3114   1.400       .  A
C3109      H3116   1.084       .  S
C3110      C3111   1.412       .  A
C3111      C3112   1.401       .  A
C3111      N3118   1.432       .  S
C3112      C3113   1.402       .  A
C3112      H3117   1.084       .  S
C3113      C3114   1.419       .  A
C3114      N3115   1.440       .  S
N3115      H3119   1.046       .  S
N3115      H3120   1.043       .  S
N3118      H3121   1.046       .  S
N3118      H3122   1.046       .  S
C3123      C3124   1.405       .  A
C3123      C3128   1.398       .  A
C3123      H3130   1.084       .  S
C3124      C3125   1.417       .  A
C3125      C3126   1.407       .  A
C3125      N3132   1.438       .  S
C3126      C3127   1.402       .  A
C3126      H3131   1.084       .  S
C3127      C3128   1.405       .  A
C3128      N3129   1.433       .  S
N3129      H3133   1.046       .  S
N3129      H3134   1.046       .  S
N3132      H3135   1.045       .  S
N3132      H3136   1.046       .  S
C3137      C3138   1.405   1_545  A
C3137      C3142   1.399       .  A
C3137      H3144   1.084       .  S
C3138      C3139   1.411       .  A
C3139      C3140   1.403       .  A
C3140      C3141   1.402       .  A
C3140      H3145   1.084       .  S
C3141      C3142   1.412   1_565  A
C3142      N3143   1.433       .  S
N3143      H3147   1.046       .  S
N3143      H3148   1.044       .  S
N3146      H3149   1.046       .  S
N3146      H3150   1.046       .  S
C3151      C3156   1.403       .  A
C3151      H3158   1.084       .  S
C3152      C3153   1.415       .  A
C3153      C3154   1.409       .  A
C3153      N3160   1.438       .  S
C3154      C3155   1.404       .  A
C3154      H3159   1.084       .  S
C3156      N3157   1.440       .  S
N3157      H3161   1.046       .  S
N3157      H3162   1.042       .  S
N3160      H3163   1.046       .  S
N3160      H3164   1.046       .  S
C3165      C3170   1.396       .  A
C3165      H3172   1.084       .  S
C3166      C3167   1.411       .  A
C3167      C3168   1.402       .  A
C3167      N3174   1.433       .  S
C3168      C3169   1.403       .  A
C3168      H3173   1.084       .  S
C3170      N3171   1.433       .  S
N3171      H3175   1.043       .  S
N3171      H3176   1.046       .  S
N3174      H3177   1.046       .  S
N3174      H3178   1.046       .  S
C3179      C3184   1.405       .  A
C3179      H3186   1.083       .  S
C3180      C3181   1.419       .  A
C3181      C3182   1.407       .  A
C3181      N3188   1.438       .  S
C3182      C3183   1.402       .  A
C3182      H3187   1.084       .  S
C3184      N3185   1.438       .  S
N3185      H3189   1.046       .  S
N3185      H3190   1.046       .  S
N3188      H3191   1.046       .  S
N3188      H3192   1.046       .  S
C3193      C3194   1.407       .  A
C3193      C3198   1.401       .  A
C3193      H3200   1.084       .  S
C3194      C3195   1.419       .  A
C3195      C3196   1.411       .  A
C3195      N3202   1.437       .  S
C3196      C3197   1.403       .  A
C3196      H3201   1.084       .  S
C3197      C3198   1.408       .  A
C3198      N3199   1.433       .  S
N3199      H3203   1.046       .  S
N3199      H3204   1.046       .  S
N3202      H3205   1.045       .  S
N3202      H3206   1.046       .  S
C3207      C3208   1.404       .  A
C3207      C3212   1.400       .  A
C3207      H3214   1.084       .  S
C3208      C3209   1.414       .  A
C3209      C3210   1.403       .  A
C3209      N3216   1.438       .  S
C3210      C3211   1.403       .  A
C3210      H3215   1.084       .  S
C3211      C3212   1.417       .  A
C3212      N3213   1.440       .  S
N3213      H3217   1.046       .  S
N3213      H3218   1.042       .  S
N3216      H3219   1.046       .  S
N3216      H3220   1.046       .  S
C3221      C3222   1.399       .  A
C3221      C3226   1.406       .  A
C3221      H3228   1.084       .  S
C3222      C3223   1.406       .  A
C3223      C3224   1.404       .  A
C3223      N3230   1.438       .  S
C3224      C3225   1.406       .  A
C3224      H3229   1.084       .  S
C3225      C3226   1.415       .  A
C3226      N3227   1.438       .  S
N3227      H3231   1.046       .  S
N3227      H3232   1.046       .  S
N3230      H3233   1.046       .  S
N3230      H3234   1.046       .  S
C3235      C3236   1.406       .  A
C3235      C3240   1.401       .  A
C3235      H3242   1.084       .  S
C3236      C3237   1.417       .  A
C3237      C3238   1.408       .  A
C3237      N3244   1.438       .  S
C3238      C3239   1.404       .  A
C3238      H3243   1.084       .  S
C3239      C3240   1.409       .  A
C3240      N3241   1.433       .  S
N3241      H3245   1.046       .  S
N3241      H3246   1.046       .  S
N3244      H3247   1.046       .  S
N3244      H3248   1.046       .  S
C3249      C3250   1.403       .  A
C3249      C3254   1.398       .  A
C3249      H3256   1.084       .  S
C3250      C3251   1.413       .  A
C3251      C3252   1.399       .  A
C3251      N3258   1.433       .  S
C3252      C3253   1.406       .  A
C3252      H3257   1.084       .  S
C3253      C3254   1.418       .  A
C3254      N3255   1.433       .  S
N3255      H3259   1.044       .  S
N3255      H3260   1.046       .  S
N3258      H3261   1.045       .  S
N3258      H3262   1.044       .  S
C3263      C3264   1.406       .  A
C3263      C3268   1.398       .  A
C3263      H3270   1.084       .  S
C3264      C3265   1.420       .  A
C3265      C3266   1.398       .  A
C3265      N3272   1.433       .  S
C3266      C3267   1.401       .  A
C3266      H3271   1.084       .  S
C3267      C3268   1.406       .  A
C3268      N3269   1.433       .  S
N3269      H3273   1.046       .  S
N3269      H3274   1.046       .  S
N3272      H3275   1.045       .  S
N3272      H3276   1.046       .  S
C3277      C3278   1.406       .  A
C3277      C3282   1.400       .  A
C3277      H3284   1.084       .  S
C3278      C3279   1.418       .  A
C3279      C3280   1.406       .  A
C3279      N3286   1.438       .  S
C3280      C3281   1.401       .  A
C3280      H3285   1.084       .  S
C3281      C3282   1.409       .  A
C3282      N3283   1.433       .  S
N3283      H3287   1.046       .  S
N3283      H3288   1.046   1_565  S
N3286      H3289   1.045       .  S
N3286      H3290   1.046       .  S
C3291      C3292   1.400       .  A
C3291      C3296   1.405       .  A
C3291      H3298   1.084       .  S
C3292      C3293   1.405       .  A
C3293      C3294   1.401       .  A
C3293      N3300   1.438       .  S
C3294      C3295   1.404       .  A
C3294      H3299   1.084       .  S
C3295      C3296   1.412       .  A
N3297      H3301   1.046       .  S
N3297      H3302   1.046       .  S
N3300      H3303   1.046       .  S
N3300      H3304   1.046       .  S
C3305      C3306   1.402       .  A
C3305      C3310   1.404       .  A
C3305      H3312   1.084       .  S
C3306      C3307   1.410       .  A
C3307      C3308   1.400       .  A
C3307      N3314   1.433       .  S
C3308      C3309   1.404       .  A
C3308      H3313   1.084       .  S
C3309      C3310   1.415       .  A
C3310      N3311   1.432       .  S
N3311      H3315   1.046       .  S
N3311      H3316   1.046       .  S
N3314      H3317   1.045       .  S
N3314      H3318   1.046       .  S
C3319      C3320   1.405       .  A
C3319      C3324   1.400       .  A
C3319      H3326   1.084       .  S
C3320      C3321   1.409       .  A
C3321      C3322   1.399       .  A
C3321      N3328   1.433       .  S
C3322      C3323   1.400       .  A
C3322      H3327   1.084       .  S
C3323      C3324   1.413       .  A
C3324      N3325   1.433       .  S
N3325      H3329   1.044       .  S
N3325      H3330   1.046       .  S
N3328      H3331   1.046       .  S
N3328      H3332   1.046       .  S
C3333      C3334   1.406       .  A
C3333      C3338   1.403       .  A
C3333      H3340   1.083       .  S
C3334      C3335   1.416       .  A
C3335      C3336   1.407       .  A
C3335      N3342   1.438       .  S
C3336      C3337   1.404       .  A
C3336      H3341   1.084       .  S
C3337      C3338   1.409       .  A
C3338      N3339   1.438       .  S
N3339      H3343   1.046       .  S
N3342      H3345   1.046       .  S
N3342      H3346   1.046       .  S
C3347      C3348   1.405       .  A
C3347      C3352   1.402       .  A
C3347      H3354   1.084       .  S
C3348      C3349   1.416       .  A
C3349      C3350   1.404       .  A
C3349      N3356   1.438       .  S
C3350      C3351   1.401       .  A
C3350      H3355   1.084       .  S
C3351      C3352   1.410       .  A
C3352      N3353   1.438       .  S
N3353      H3357   1.046       .  S
N3353      H3358   1.046   1_565  S
N3356      H3359   1.046       .  S
N3356      H3360   1.046       .  S
