geometry optimzed in LAMMPS
_audit_creation_date              2020-11-30 
_audit_creation_method            'lammps2cif' 
_symmetry_space_group_name_H-M    'P1' 
_symmetry_Int_Tables_number       1 
_symmetry_cell_setting            triclinic 
loop_ 
_symmetry_equiv_pos_as_xyz 
  x,y,z 
_cell_length_a                    27.80329636 
_cell_length_b                    45.64066678181242 
_cell_length_c                    28.700489675395687 
_cell_angle_alpha                 90.78141067810257 
_cell_angle_beta                  90.09281650181886 
_cell_angle_gamma                 90.59735982009143 
loop_ 
_atom_site_label 
_atom_site_type_symbol 
_atom_site_fract_x 
_atom_site_fract_y 
_atom_site_fract_z 
_atom_site_charge 
In1        In  0.56505336  0.30469378  0.32840121     1.36900
C2          C  0.53662324  0.35804120  0.32058435     0.77600
O3          O  0.48750490  0.29925588  0.30526226    -0.60800
O4          O  0.51358413  0.27377940  0.36110984    -0.51700
C5          C  0.61359157  0.27835017  0.25951662     0.70300
O6          O  0.61554951  0.30554946  0.26663433    -0.46600
C7          C  0.61933496  0.31342883  0.40465422     0.75000
O8          O  0.55197095  0.34384775  0.28572046    -0.58500
O9          O  0.58853261  0.29310241  0.40070636    -0.48500
O10         O  0.53136686  0.34397448  0.35762627    -0.54900
C11         C  0.47795316  0.28118081  0.33678177     0.85200
O12         O  0.58949486  0.26451252  0.28935217    -0.56800
O13         O  0.62590696  0.32765842  0.36796099    -0.60100
In14       In  0.94077151  0.20192966  0.07255869     1.36900
C15         C  0.96377325  0.14680271  0.07201486     0.77600
O16         O  0.01724748  0.20705126  0.05009826    -0.60800
O17         O  0.99332547  0.23307657  0.10713634    -0.51700
C18         C  0.90503160  0.22684642  0.99732761     0.70300
O19         O  0.90667329  0.19957419  0.00209217    -0.46600
C20         C  0.87654707  0.19899390  0.14140340     0.75000
O21         O  0.95027449  0.15961533  0.03578003    -0.58500
O22         O  0.91130225  0.21692049  0.14077086    -0.48500
O23         O  0.96943119  0.16275850  0.10782856    -0.54900
C24         C  0.02759274  0.22609082  0.08068991     0.85200
O25         O  0.91778609  0.24157530  0.03276808    -0.56800
O26         O  0.87164730  0.18398863  0.10457954    -0.60100
C27         C  0.37256892  0.23522726  0.37989234     0.86500
C28         C  0.36902074  0.22123594  0.33094986    -0.53700
C29         C  0.37782488  0.24030328  0.29516620     0.09400
C30         C  0.38557957  0.27226183  0.31227482     0.20400
C31         C  0.42174566  0.25033549  0.38078769    -0.54400
C32         C  0.42934309  0.26925710  0.34523354     0.09600
C33         C  0.33663489  0.26028070  0.38029155    -0.54000
C34         C  0.34173465  0.27946997  0.34467108     0.10100
H35         H  0.36647901  0.19765487  0.32572825     0.14600
H36         H  0.39155204  0.28793836  0.28358596     0.00400
H37         H  0.44937470  0.24525860  0.40618222     0.14900
H38         H  0.30772493  0.26193508  0.40558944     0.14700
C39         C  0.31866329  0.18864475  0.48097288     0.86500
C40         C  0.35765050  0.20474620  0.02218643    -0.53700
C41         C  0.35229787  0.18982378  0.06267169     0.09400
C42         C  0.31475544  0.16444009  0.05933334     0.20400
C43         C  0.32661896  0.15570742  0.47762664    -0.54400
C44         C  0.33062738  0.14483445  0.01705856     0.09600
C45         C  0.26797020  0.19188991  0.50061765    -0.54000
C46         C  0.26867194  0.17982834  0.04257990     0.10100
H47         H  0.38231723  0.22319713  0.01873430     0.14600
H48         H  0.30977044  0.15258734  0.09246142     0.00400
H49         H  0.33608529  0.14557817  0.44465858     0.14900
H50         H  0.24218133  0.20661341  0.48518219     0.14700
C51         C  0.14281065  0.26769863  0.11673831     0.86500
C52         C  0.14510022  0.28245905  0.06929291    -0.53700
C53         C  0.12925062  0.26524565  0.03312378     0.09400
C54         C  0.11487345  0.23407372  0.04766816     0.20400
C55         C  0.09026551  0.25691057  0.12080291    -0.54400
C56         C  0.07604481  0.23897654  0.08478171     0.09600
C57         C  0.17280228  0.23986481  0.11110436    -0.54000
C58         C  0.15840564  0.22218982  0.07458322     0.10100
H59         H  0.15395512  0.30554777  0.06544453     0.14600
H60         H  0.10306533  0.21989698  0.01792527     0.00400
H61         H  0.06646590  0.26299182  0.14920820     0.14900
H62         H  0.20419551  0.23578733  0.13243252     0.14700
C63         C  0.16802370  0.30279686  0.23909688     0.86500
C64         C  0.14611949  0.29409634  0.28514696    -0.53700
C65         C  0.16042095  0.31056298  0.32249458     0.09400
C66         C  0.19951410  0.33422247  0.30988679     0.20400
C67         C  0.15773671  0.33556221  0.23511321    -0.54400
C68         C  0.17539102  0.35301312  0.27112808     0.09600
C69         C  0.22199892  0.30088172  0.24594367    -0.54000
C70         C  0.23939061  0.31657994  0.28304456     0.10100
H71         H  0.11808212  0.27738539  0.28725432     0.14600
H72         H  0.21320689  0.34713226  0.34022911     0.00400
H73         H  0.13814176  0.34359963  0.20539661     0.14900
H74         H  0.24447397  0.28681498  0.22443502     0.14700
In75       In  0.44282976  0.20514197  0.17573003     1.36900
C76         C  0.53327973  0.22590526  0.16774380     0.77600
O77         O  0.41571819  0.24469448  0.21867251    -0.60800
O78         O  0.39908786  0.20201700  0.24112976    -0.51700
C79         C  0.38095469  0.19740265  0.10482313     0.70300
O80         O  0.41017727  0.21881489  0.10711609    -0.46600
C81         C  0.46610979  0.14989041  0.17963531     0.75000
O82         O  0.50107961  0.23156381  0.13822477    -0.58500
O83         O  0.45557520  0.16464162  0.21552639    -0.48500
O84         O  0.51839502  0.21130237  0.20178697    -0.54900
C85         C  0.39678987  0.22898955  0.24980944     0.85200
O86         O  0.38002257  0.18200395  0.14071091    -0.56800
O87         O  0.46947722  0.16406643  0.14242934    -0.60100
In88       In  0.06217258  0.30549284  0.43200837     1.36900
C89         C  0.97236658  0.28310580  0.42029252     0.77600
O90         O  0.08251131  0.26445617  0.47046846    -0.60800
O91         O  0.09691788  0.30567639  0.50231794    -0.51700
C92         C  0.13077380  0.30789603  0.36548710     0.70300
O93         O  0.10078242  0.28718809  0.37019967    -0.46600
C94         C  0.04265972  0.36124141  0.43869170     0.75000
O95         O  0.00446028  0.28084611  0.38944037    -0.58500
O96         O  0.05966862  0.34715999  0.47223333    -0.48500
O97         O  0.98612718  0.29686688  0.45632026    -0.54900
C98         C  0.09744021  0.27830407  0.50600487     0.85200
O99         O  0.12889718  0.32680912  0.39756037    -0.56800
O100        O  0.03166576  0.34629184  0.40284295    -0.60100
C101        C  0.85580541  0.24068314  0.38543126     0.86500
C102        C  0.90648481  0.25421404  0.37826161    -0.53700
C103        C  0.92302373  0.27023614  0.41603838     0.09400
C104        C  0.88711601  0.27119914  0.45695189     0.20400
C105        C  0.86037687  0.22316392  0.43038962    -0.54400
C106        C  0.87708580  0.23892003  0.46756347     0.09600
C107        C  0.82351109  0.26645793  0.39855342    -0.54000
C108        C  0.83954858  0.28235829  0.43651954     0.10100
H109        H  0.92774471  0.25056217  0.34707155     0.14600
H110        H  0.90012839  0.28401499  0.48774089     0.00400
H111        H  0.85312030  0.19975650  0.43218422     0.14900
H112        H  0.78881630  0.26973728  0.38215242     0.14700
C113        C  0.82192996  0.20648651  0.26249215     0.86500
C114        C  0.83479695  0.17423155  0.27259582    -0.53700
C115        C  0.82712663  0.15469612  0.23648145     0.09400
C116        C  0.80950651  0.17029961  0.19201903     0.20400
C117        C  0.85233342  0.21395156  0.22032985    -0.54400
C118        C  0.84631546  0.19542904  0.18326943     0.09600
C119        C  0.76979312  0.20517740  0.24419852    -0.54000
C120        C  0.76304745  0.18592988  0.20753348     0.10100
H121        H  0.84930984  0.16755093  0.30558556     0.14600
H122        H  0.80414605  0.15558135  0.16138719     0.00400
H123        H  0.87752628  0.23232256  0.22017931     0.14900
H124        H  0.74024450  0.21589859  0.26201029     0.14700
C125        C  0.65663945  0.26050880  0.13558686     0.86500
C126        C  0.60415860  0.24981093  0.12712446    -0.53700
C127        C  0.58433686  0.23550183  0.16419393     0.09400
C128        C  0.61915570  0.23226341  0.20523840     0.20400
C129        C  0.65383785  0.27882750  0.18107307    -0.54400
C130        C  0.63343201  0.26394618  0.21745247     0.09600
C131        C  0.68428224  0.23268008  0.14903110    -0.54000
C132        C  0.66439055  0.21774331  0.18526617     0.10100
H133        H  0.58415020  0.25415314  0.09550194     0.14600
H134        H  0.60346249  0.22010822  0.23495721     0.00400
H135        H  0.66305481  0.30198611  0.18299661     0.14900
H136        H  0.71378101  0.22394420  0.12852132     0.14700
C137        C  0.67439092  0.31444334  0.02850970     0.86500
C138        C  0.67330371  0.34793370  0.03275410    -0.53700
C139        C  0.67266762  0.36316271  0.49604825     0.09400
C140        C  0.68645868  0.34235233  0.45501588     0.20400
C141        C  0.63207857  0.30635120  0.48927392    -0.54400
C142        C  0.64412065  0.32034676  0.44918614     0.09600
C143        C  0.72504060  0.30771224  0.00963375    -0.54000
C144        C  0.72722425  0.32336012  0.47428980     0.10100
H145        H  0.66349984  0.35833822  0.06541249     0.14600
H146        H  0.69621423  0.35360233  0.42230143     0.00400
H147        H  0.60314266  0.29021803  0.49105410     0.14900
H148        H  0.74868170  0.29171659  0.02476389     0.14700
In149      In  0.06407411  0.44858779  0.43118463     1.36900
C150        C  0.04272046  0.39292810  0.43899198     0.77600
O151        O  0.98730915  0.45337593  0.45582832    -0.60800
O152        O  0.01256367  0.47982850  0.40044666    -0.51700
C153        C  0.10582132  0.47760112  0.50300551     0.70300
O154        O  0.10462865  0.45016112  0.49884344    -0.46600
C155        C  0.11803200  0.43943286  0.35470043     0.75000
O156        O  0.06091293  0.40767500  0.47208435    -0.58500
O157        O  0.08058209  0.45468468  0.35493660    -0.48500
O158        O  0.03052757  0.40728372  0.40388520    -0.54900
C159        C  0.97773847  0.47249481  0.42602443     0.85200
O160        O  0.08990757  0.49078346  0.46789109    -0.56800
O161        O  0.13151601  0.43192675  0.39466187    -0.60100
In162      In  0.44691119  0.06211279  0.17668435     1.36900
C163        C  0.46673749  0.11824239  0.17991494     0.77600
O164        O  0.52317435  0.05802988  0.20138972    -0.60800
O165        O  0.50069117  0.03311926  0.14212581    -0.51700
C166        C  0.40778428  0.03498339  0.24923571     0.70300
O167        O  0.40838294  0.06232732  0.24489956    -0.46600
C168        C  0.38632856  0.06435267  0.10481264     0.75000
O169        O  0.45523100  0.10412617  0.21563472    -0.58500
O170        O  0.42261311  0.04808569  0.10562855    -0.48500
O171        O  0.47254264  0.10320874  0.14329002    -0.54900
C172        C  0.53424012  0.03985012  0.16994208     0.85200
O173        O  0.42396554  0.02101788  0.21457566    -0.56800
O174        O  0.37769469  0.07728973  0.14286372    -0.60100
C175        C  0.87203325  0.01699228  0.38015825     0.86500
C176        C  0.87313678  0.03401684  0.42721470    -0.53700
C177        C  0.88672956  0.01724106  0.46429978     0.09400
C178        C  0.89194178  0.48721402  0.45996311     0.20400
C179        C  0.91860714  0.50143673  0.38263631    -0.54400
C180        C  0.92999520  0.48569472  0.42102078     0.09600
C181        C  0.83319397  0.49427026  0.39791103    -0.54000
C182        C  0.84388813  0.47819374  0.43657268     0.10100
H183        H  0.86500850  0.05709354  0.43115411     0.14600
H184        H  0.90123098  0.47438677  0.49129142     0.00400
H185        H  0.94240650  0.50329764  0.35276887     0.14900
H186        H  0.79987423  0.49119227  0.37887285     0.14700
C187        C  0.84179549  0.07567989  0.28444601     0.86500
C188        C  0.87571861  0.06648435  0.24486009    -0.53700
C189        C  0.86388196  0.07749701  0.20243345     0.09400
C190        C  0.82005945  0.09804995  0.20392128     0.20400
C191        C  0.84284883  0.10924142  0.28423460    -0.54400
C192        C  0.83144922  0.12171179  0.24223574     0.09600
C193        C  0.79129897  0.06726916  0.26701871    -0.54000
C194        C  0.77993777  0.07859002  0.22447191     0.10100
H195        H  0.90554072  0.05164308  0.24978927     0.14600
H196        H  0.81064086  0.10687424  0.16934530     0.00400
H197        H  0.85113423  0.12156184  0.31576835     0.14900
H198        H  0.76863666  0.05157795  0.28499884     0.14700
C199        C  0.62954568  0.48482938  0.13335789     0.86500
C200        C  0.62845632  0.46787638  0.17904571    -0.53700
C201        C  0.61572895  0.48443252  0.21695511     0.09400
C202        C  0.61743892  0.02579171  0.20791626     0.20400
C203        C  0.59618458  0.01084612  0.12865726    -0.54400
C204        C  0.58205041  0.02666723  0.16673962     0.09600
C205        C  0.68007755  0.01905829  0.14958354    -0.54000
C206        C  0.66655995  0.03510297  0.18802570     0.10100
H207        H  0.63339601  0.44431683  0.18046865     0.14600
H208        H  0.60595495  0.03885764  0.23881990     0.00400
H209        H  0.57447449  0.00871374  0.09724529     0.14900
H210        H  0.71471452  0.02156694  0.13265702     0.14700
C211        C  0.68405647  0.44608216  0.02336269     0.86500
C212        C  0.63205982  0.45184566  0.48765798    -0.53700
C213        C  0.64274001  0.43674707  0.44767824     0.09400
C214        C  0.68635829  0.41618414  0.45268158     0.20400
C215        C  0.67990121  0.41311018  0.03063831    -0.54400
C216        C  0.67401987  0.39641934  0.49527590     0.09600
C217        C  0.73254102  0.45042265  0.99989942    -0.54000
C218        C  0.72734414  0.43712069  0.46962381     0.10100
H219        H  0.60237042  0.46708708  0.49016592     0.14600
H220        H  0.69512790  0.40405969  0.42011197     0.00400
H221        H  0.67460752  0.40452645  0.06521100     0.14900
H222        H  0.75861725  0.46665567  0.01227479     0.14700
In223      In  0.55583506  0.44437618  0.33043394     1.36900
C224        C  0.46955995  0.46819246  0.33686221     0.77600
O225        O  0.57965754  0.48513865  0.29299638    -0.60800
O226        O  0.60119171  0.44379891  0.26648349    -0.51700
C227        C  0.61431681  0.44059057  0.40452478     0.70300
O228        O  0.57902100  0.45760014  0.40270040    -0.46600
C229        C  0.53382241  0.38937217  0.32107694     0.75000
O230        O  0.50251594  0.47255428  0.36636718    -0.58500
O231        O  0.54681854  0.40430117  0.28675204    -0.48500
O232        O  0.48059257  0.45152082  0.30330892    -0.54900
C233        C  0.59977576  0.47097037  0.26059248     0.85200
O234        O  0.62222068  0.42689540  0.36702756    -0.56800
O235        O  0.52623315  0.40331138  0.35842366    -0.60100
In236      In  0.94481824  0.05992766  0.08380131     1.36900
C237        C  0.03110188  0.03571861  0.08686401     0.77600
O238        O  0.91820906  0.01773503  0.04853357    -0.60800
O239        O  0.90176592  0.05828813  0.01795808    -0.51700
C240        C  0.88978759  0.06899200  0.15927297     0.70300
O241        O  0.92654330  0.05308666  0.15945648    -0.46600
C242        C  0.96542473  0.11529254  0.07393093     0.75000
O243        O  0.99818270  0.03003740  0.11561243    -0.58500
O244        O  0.95054411  0.09951275  0.04053802    -0.48500
O245        O  0.01996123  0.05384143  0.05605677    -0.54900
C246        C  0.90085009  0.03085151  0.01401825     0.85200
O247        O  0.87794604  0.07756765  0.11941805    -0.56800
O248        O  0.97536091  0.10208567  0.11086051    -0.60100
C249        C  0.13785497  0.49077248  0.13060571     0.86500
C250        C  0.09335755  0.00745057  0.12785946    -0.53700
C251        C  0.07848405  0.02180704  0.08916115     0.09400
C252        C  0.11378740  0.01989959  0.04798889     0.20400
C253        C  0.13445123  0.47218096  0.08502830    -0.54400
C254        C  0.11963288  0.48774115  0.04709017     0.09600
C255        C  0.17669249  0.01605109  0.10672092    -0.54000
C256        C  0.16233063  0.03073260  0.06793451     0.10100
H257        H  0.07225139  0.00654134  0.15965026     0.14600
H258        H  0.10179405  0.03178327  0.01657186     0.00400
H259        H  0.14180575  0.44894167  0.08263134     0.14900
H260        H  0.21111123  0.01978520  0.12381442     0.14700
C261        C  0.16422139  0.43328211  0.22878146     0.86500
C262        C  0.16246371  0.39990920  0.22765721    -0.53700
C263        C  0.17364876  0.38643408  0.26873290     0.09400
C264        C  0.18605609  0.40939408  0.30823959     0.20400
C265        C  0.13093893  0.44233710  0.26892163    -0.54400
C266        C  0.14281056  0.43057188  0.31093669     0.09600
C267        C  0.21486149  0.44095768  0.24597502    -0.54000
C268        C  0.22633501  0.42920965  0.28824018     0.10100
H269        H  0.15464409  0.38833406  0.19535978     0.14600
H270        H  0.19547533  0.39958941  0.34218944     0.00400
H271        H  0.10183567  0.45778643  0.26474129     0.14900
H272        H  0.23714369  0.45705447  0.22845644     0.14700
C273        C  0.37121902  0.01858184  0.37497594     0.86500
C274        C  0.41089134  0.49832512  0.37982635    -0.53700
C275        C  0.42263126  0.48240636  0.34116304     0.09400
C276        C  0.38578805  0.48440567  0.30140746     0.22800
C277        C  0.37898955  0.03687779  0.33113646    -0.54400
C278        C  0.39228243  0.02095386  0.29274449     0.09600
C279        C  0.32564360  0.49198445  0.36227092    -0.54000
C280        C  0.33726844  0.47574876  0.32323506     0.10100
H281        H  0.43394801  0.49987875  0.41040529     0.14600
H282        H  0.39545483  0.47140608  0.26983924     0.00400
H283        H  0.37625672  0.06060893  0.33113020     0.14900
H284        H  0.29171290  0.48931885  0.38027309     0.14700
C285        C  0.31764789  0.05750535  0.48620700     0.86500
C286        C  0.32478246  0.09049587  0.47960956    -0.53700
C287        C  0.33323286  0.11172361  0.01603873     0.09400
C288        C  0.31746158  0.09118550  0.05612212     0.20400
C289        C  0.37021689  0.05461288  0.02128367    -0.54400
C290        C  0.35872193  0.06901172  0.06160608     0.09600
C291        C  0.26780204  0.05451780  0.50735470    -0.54000
C292        C  0.27589124  0.07257962  0.03536643     0.10100
H293        H  0.33280689  0.09905379  0.44551305     0.14600
H294        H  0.30782941  0.10259942  0.08909200     0.00400
H295        H  0.39887396  0.03864499  0.01904350     0.14900
H296        H  0.24139707  0.03890966  0.49372898     0.14700
C297        C  0.36249107  0.03816256  0.41721595    -0.16400
C298        C  0.32219648  0.03860045  0.44258463    -0.31600
H299        H  0.39180200  0.05284706  0.42752494     0.12600
H300        H  0.29188433  0.02488162  0.43233198     0.13200
C301        C  0.26565773  0.44205740  0.31753614    -0.16400
C302        C  0.30419611  0.45519871  0.29828066    -0.31600
H303        H  0.26041091  0.44300128  0.35499017     0.12600
H304        H  0.31092943  0.45208816  0.26130427     0.13200
C305        C  0.15157223  0.44668121  0.18215247    -0.16400
C306        C  0.15312176  0.47580699  0.17525431    -0.31600
H307        H  0.14016176  0.43203483  0.15417724     0.12600
H308        H  0.16251588  0.49003306  0.20464100     0.13200
C309        C  0.19414193  0.05117455  0.04251537    -0.16400
C310        C  0.23270575  0.06431977  0.06254561    -0.31600
H311        H  0.18865978  0.05248128  0.00515423     0.12600
H312        H  0.23598473  0.06528951  0.10021734     0.13200
C313        C  0.63885207  0.46480405  0.09202791    -0.16400
C314        C  0.67937694  0.46474461  0.06686042    -0.31600
H315        H  0.61028181  0.44940579  0.08241353     0.12600
H316        H  0.70950380  0.47868646  0.07681147     0.13200
C317        C  0.69969223  0.05497090  0.21437114    -0.16400
C318        C  0.73942566  0.06703102  0.19563541    -0.31600
H319        H  0.69288430  0.05775992  0.25141310     0.12600
H320        H  0.74463176  0.06632550  0.15815251     0.13200
C321        C  0.85748645  0.03302535  0.33617085    -0.16400
C322        C  0.85447788  0.06232252  0.33124459    -0.31600
H323        H  0.85144552  0.01928516  0.30541510     0.12600
H324        H  0.86235252  0.07691722  0.36042203     0.13200
C325        C  0.80912787  0.45831874  0.46026755    -0.16400
C326        C  0.76900147  0.44661680  0.44047871    -0.31600
H327        H  0.81486747  0.45554184  0.49737989     0.12600
H328        H  0.76407523  0.44706052  0.40299188     0.13200
C329        C  0.67871742  0.27630547  0.09387121    -0.16400
C330        C  0.65765525  0.29945388  0.07339657    -0.31600
H331        H  0.71124278  0.26724653  0.07910822     0.12600
H332        H  0.62386942  0.30706367  0.08797400     0.13200
C333        C  0.71547970  0.17253775  0.19643645    -0.16400
C334        C  0.67291144  0.18612443  0.19270512    -0.31600
H335        H  0.71466762  0.14872956  0.19505007     0.12600
H336        H  0.64096543  0.17222510  0.19140428     0.13200
C337        C  0.83652458  0.22083261  0.34670759    -0.16400
C338        C  0.83113542  0.22867889  0.30206587    -0.31600
H339        H  0.82681345  0.19871231  0.35633748     0.12600
H340        H  0.83790081  0.25139147  0.29304240     0.13200
C341        C  0.80816924  0.30223911  0.46376763    -0.16400
C342        C  0.76919335  0.31494303  0.44546892    -0.31600
H343        H  0.81429830  0.30338897  0.50111821     0.12600
H344        H  0.76492225  0.31588401  0.40791921     0.13200
C345        C  0.16007470  0.28807647  0.15529070    -0.16400
C346        C  0.14938381  0.28336735  0.19997386    -0.31600
H347        H  0.18165611  0.30719812  0.14643358     0.12600
H348        H  0.12716515  0.26448274  0.20860522     0.13200
C349        C  0.22842689  0.18824713  0.07377386    -0.16400
C350        C  0.18658065  0.19735220  0.05544127    -0.31600
H351        H  0.23728951  0.19277136  0.10998442     0.12600
H352        H  0.17748992  0.19056879  0.02004566     0.13200
C353        C  0.36735328  0.21387625  0.41959485    -0.16400
C354        C  0.32443663  0.20445495  0.43511525    -0.31600
H355        H  0.39949152  0.20811525  0.43884989     0.12600
H356        H  0.29216825  0.21077158  0.41651803     0.13200
C357        C  0.30241821  0.30130837  0.33755995    -0.16400
C358        C  0.29085306  0.31195596  0.29585185    -0.31600
H359        H  0.27568531  0.30321604  0.36504270     0.12600
H360        H  0.31566194  0.30829191  0.26721352     0.13200
In361      In  0.56745048  0.31028838  0.82795745     1.36900
C362        C  0.54482931  0.36552895  0.82064352     0.77600
O363        O  0.48918683  0.30513587  0.80563757    -0.60800
O364        O  0.51730841  0.27815313  0.85859421    -0.51700
C365        C  0.61025913  0.28062400  0.75874629     0.70300
O366        O  0.61140954  0.30813309  0.76193305    -0.46600
C367        C  0.62402891  0.31586551  0.90358878     0.75000
O368        O  0.56063378  0.35095360  0.78642708    -0.58500
O369        O  0.58643983  0.30033468  0.90224395    -0.48500
O370        O  0.53675524  0.35125125  0.85704945    -0.54900
C371        C  0.48124907  0.28528197  0.83485258     0.85200
O372        O  0.59018263  0.26823317  0.79253073    -0.56800
O373        O  0.63505291  0.32698491  0.86508973    -0.60100
In374      In  0.92830590  0.19639781  0.58197010     1.36900
C375        C  0.95121512  0.14155447  0.57764513     0.77600
O376        O  0.00354772  0.20361161  0.55650621    -0.60800
O377        O  0.98329769  0.22212324  0.62190348    -0.51700
C378        C  0.89137549  0.22453557  0.51073093     0.70300
O379        O  0.88992844  0.19713096  0.51437555    -0.46600
C380        C  0.86316718  0.19234982  0.64939987     0.75000
O381        O  0.93572860  0.15486930  0.54259007    -0.58500
O382        O  0.89544486  0.21194094  0.64825221    -0.48500
O383        O  0.95895464  0.15690949  0.61371736    -0.54900
C384        C  0.01588040  0.21845920  0.59192469     0.85200
O385        O  0.90875833  0.23809349  0.54546346    -0.56800
O386        O  0.86136170  0.17602287  0.61383097    -0.60100
C387        C  0.37806453  0.23784606  0.87944975     0.86500
C388        C  0.37217502  0.22306836  0.83157228    -0.53700
C389        C  0.37982911  0.24134210  0.79471515     0.09400
C390        C  0.38967058  0.27357493  0.80996300     0.20400
C391        C  0.42756208  0.25244794  0.87816276    -0.54400
C392        C  0.43409835  0.27111828  0.84202506     0.09600
C393        C  0.34286090  0.26326387  0.87996785    -0.54000
C394        C  0.34760551  0.28184622  0.84360508     0.10100
H395        H  0.36806261  0.19946837  0.82755725     0.14600
H396        H  0.39524735  0.28849251  0.78024617     0.00400
H397        H  0.45548695  0.24805379  0.90359326     0.14900
H398        H  0.31508674  0.26591828  0.90622702     0.14700
C399        C  0.32575307  0.19315320  0.98220435     0.86500
C400        C  0.35184128  0.19965648  0.52051924    -0.53700
C401        C  0.34529612  0.18566819  0.56171963     0.09400
C402        C  0.30521461  0.16176602  0.55963898     0.20400
C403        C  0.33697150  0.16077991  0.97727767    -0.54400
C404        C  0.31872702  0.14073752  0.51823152     0.09600
C405        C  0.27482421  0.19410312  0.00142270    -0.54000
C406        C  0.26076402  0.17868658  0.54256511     0.10100
H407        H  0.37783734  0.21736175  0.51657512     0.14600
H408        H  0.29919173  0.15078038  0.59336239     0.00400
H409        H  0.34669242  0.15168161  0.94365007     0.14900
H410        H  0.24772873  0.20816387  0.98647401     0.14700
C411        C  0.12703435  0.26126727  0.63281847     0.86500
C412        C  0.12467130  0.27964152  0.58855712    -0.53700
C413        C  0.11110687  0.26401273  0.54971328     0.09400
C414        C  0.10215553  0.23131942  0.55866922     0.20400
C415        C  0.07735652  0.24672351  0.63630654    -0.54400
C416        C  0.06418580  0.23120642  0.59747553     0.09600
C417        C  0.16152116  0.23603979  0.62107053    -0.54000
C418        C  0.14873119  0.22046405  0.58163878     0.10100
H419        H  0.13026888  0.30323901  0.58867136     0.14600
H420        H  0.09122652  0.21869451  0.52694465     0.00400
H421        H  0.05393413  0.24926528  0.66633368     0.14900
H422        H  0.19425782  0.23225414  0.64057450     0.14700
C423        C  0.19353529  0.30812789  0.72837922     0.86500
C424        C  0.16906129  0.29675280  0.77225114    -0.53700
C425        C  0.17692446  0.31346390  0.81113862     0.09400
C426        C  0.21317530  0.33931778  0.80324040     0.20400
C427        C  0.17878888  0.34018290  0.72529183    -0.54400
C428        C  0.19041713  0.35755841  0.76366549     0.09600
C429        C  0.24672638  0.30931614  0.74001271    -0.54000
C430        C  0.25760853  0.32489208  0.77936667     0.10100
H431        H  0.14440561  0.27813897  0.77185954     0.14600
H432        H  0.22208219  0.35209118  0.83532056     0.00400
H433        H  0.16181292  0.34772978  0.69384090     0.14900
H434        H  0.27341554  0.29686198  0.72069017     0.14700
In435      In  0.43550681  0.20146044  0.67575835     1.36900
C436        C  0.52486161  0.22370408  0.66990587     0.77600
O437        O  0.41243411  0.24291930  0.71592007    -0.60800
O438        O  0.39295408  0.20138566  0.74160279    -0.51700
C439        C  0.37444916  0.19338059  0.60365601     0.70300
O440        O  0.40920798  0.21138656  0.60299687    -0.46600
C441        C  0.45696104  0.14585437  0.68306820     0.75000
O442        O  0.49193634  0.23032935  0.64169475    -0.58500
O443        O  0.44310361  0.16100113  0.71737280    -0.48500
O444        O  0.51164863  0.20654045  0.70150329    -0.54900
C445        C  0.39398920  0.22857846  0.74883471     0.85200
O446        O  0.36798276  0.18175009  0.64259236    -0.56800
O447        O  0.46446739  0.15975668  0.64612944    -0.60100
In448      In  0.07533781  0.30603429  0.91725996     1.36900
C449        C  0.98467628  0.28567478  0.90687960     0.77600
O450        O  0.09379574  0.26458529  0.95617668    -0.60800
O451        O  0.11673227  0.30577503  0.98336401    -0.51700
C452        C  0.14427410  0.30968826  0.85165598     0.70300
O453        O  0.11392507  0.28891517  0.85383837    -0.46600
C454        C  0.05295541  0.36111324  0.92628720     0.75000
O455        O  0.01613279  0.28320459  0.87534779    -0.58500
O456        O  0.06767525  0.34635271  0.96012989    -0.48500
O457        O  0.99978559  0.29817816  0.94351694    -0.54900
C458        C  0.11399997  0.27857658  0.98910710     0.85200
O459        O  0.14133131  0.32788952  0.88467768    -0.56800
O460        O  0.04676274  0.34722778  0.88842997    -0.60100
C461        C  0.87022437  0.24280516  0.87081770     0.86500
C462        C  0.91891836  0.25856201  0.86404831    -0.53700
C463        C  0.93475938  0.27389093  0.90244743     0.09400
C464        C  0.89916008  0.27298875  0.94367597     0.20400
C465        C  0.87741554  0.22441266  0.91469236    -0.54400
C466        C  0.89217771  0.24028162  0.95286044     0.09600
C467        C  0.83521019  0.26709384  0.88597239    -0.54000
C468        C  0.85001474  0.28264198  0.92477568     0.10100
H469        H  0.94046657  0.25602367  0.83277010     0.14600
H470        H  0.91149775  0.28572855  0.97480650     0.00400
H471        H  0.87222412  0.20078475  0.91515577     0.14900
H472        H  0.80013178  0.26998709  0.87039194     0.14700
C473        C  0.80444255  0.19954591  0.76854755     0.86500
C474        C  0.81534289  0.16739787  0.77969371    -0.53700
C475        C  0.81024775  0.14786050  0.74297426     0.09400
C476        C  0.79472684  0.16350106  0.69768670     0.20400
C477        C  0.83672727  0.20700416  0.72764634    -0.54400
C478        C  0.83213458  0.18847190  0.69048070     0.09600
C479        C  0.75319717  0.19870128  0.74807834    -0.54000
C480        C  0.74790350  0.17970682  0.71094479     0.10100
H481        H  0.82527504  0.16125623  0.81470468     0.14600
H482        H  0.79059337  0.14868378  0.66699019     0.00400
H483        H  0.86179560  0.22545411  0.72838965     0.14900
H484        H  0.72323055  0.21026275  0.76379660     0.14700
C485        C  0.64626180  0.25906479  0.63482757     0.86500
C486        C  0.59348374  0.24870118  0.62867175    -0.53700
C487        C  0.57496627  0.23488036  0.66672288     0.09400
C488        C  0.61110185  0.23241526  0.70702072     0.20400
C489        C  0.64595306  0.27816109  0.67921975    -0.54400
C490        C  0.62673555  0.26438219  0.71697385     0.09600
C491        C  0.67381901  0.23125086  0.64828199    -0.54000
C492        C  0.65513392  0.21690833  0.68580201     0.10100
H493        H  0.57268950  0.25220821  0.59717555     0.14600
H494        H  0.59626482  0.22114247  0.73799526     0.00400
H495        H  0.65613448  0.30119834  0.67962363     0.14900
H496        H  0.70129740  0.22164002  0.62616924     0.14700
C497        C  0.66371480  0.31451296  0.53115008     0.86500
C498        C  0.66040414  0.34785590  0.53546251    -0.53700
C499        C  0.68431035  0.36290901  0.99270340     0.09400
C500        C  0.69565320  0.34175964  0.95135409     0.20400
C501        C  0.64047639  0.30716209  0.98765451    -0.54400
C502        C  0.65171210  0.32101155  0.94711850     0.09600
C503        C  0.71546543  0.30916869  0.51462008    -0.54000
C504        C  0.73596822  0.32164809  0.96880480     0.10100
H505        H  0.64936514  0.35780790  0.56804773     0.14600
H506        H  0.70473819  0.35283382  0.91831888     0.00400
H507        H  0.61041309  0.29190457  0.99052059     0.14900
H508        H  0.73944035  0.29394784  0.53114369     0.14700
In509      In  0.06912536  0.44840513  0.92505685     1.36900
C510        C  0.05019534  0.39262640  0.92897106     0.77600
O511        O  0.99052020  0.45182401  0.94230474    -0.60800
O512        O  0.02045071  0.48273492  0.89571917    -0.51700
C513        C  0.10663990  0.47402744  0.00170057     0.70300
O514        O  0.10158892  0.44683620  0.99673382    -0.46600
C515        C  0.12667760  0.44076856  0.85094530     0.75000
O516        O  0.06713541  0.40675321  0.96330754    -0.58500
O517        O  0.09031447  0.45693698  0.85116639    -0.48500
O518        O  0.03694142  0.40764976  0.89486371    -0.54900
C519        C  0.98352134  0.47351681  0.91652709     0.85200
O520        O  0.09633489  0.48838535  0.96579559    -0.56800
O521        O  0.13769664  0.43131733  0.89045418    -0.60100
In522      In  0.43705286  0.05784838  0.67972937     1.36900
C523        C  0.45723689  0.11412463  0.68417546     0.77600
O524        O  0.51108878  0.05067839  0.70950103    -0.60800
O525        O  0.49311757  0.03154115  0.64381513    -0.51700
C526        C  0.39583171  0.02857589  0.74959311     0.70300
O527        O  0.39598066  0.05605000  0.74676999    -0.46600
C528        C  0.37599759  0.06073466  0.60762650     0.75000
O529        O  0.44188681  0.10023252  0.71879852    -0.58500
O530        O  0.41215263  0.04430278  0.60766829    -0.48500
O531        O  0.46680961  0.09877825  0.64870513    -0.54900
C532        C  0.52413524  0.03487942  0.67557496     0.85200
O533        O  0.41410145  0.01562727  0.71492067    -0.56800
O534        O  0.36847939  0.07358062  0.64594399    -0.60100
C535        C  0.86408196  0.01239976  0.88769668     0.86500
C536        C  0.87013563  0.03130392  0.93240541    -0.53700
C537        C  0.88466035  0.01594081  0.97049732     0.09400
C538        C  0.89732167  0.48468412  0.94960290     0.20400
C539        C  0.92331870  0.50455160  0.87552055    -0.54400
C540        C  0.93602344  0.48721952  0.91191462     0.09600
C541        C  0.83886220  0.49168041  0.88771276    -0.54000
C542        C  0.85160276  0.47420772  0.92404453     0.10100
H543        H  0.86552977  0.05483160  0.93408320     0.14600
H544        H  0.90784999  0.47068107  0.97923106     0.00400
H545        H  0.94699234  0.50877641  0.84624944     0.14900
H546        H  0.80623529  0.48841294  0.86742684     0.14700
C547        C  0.83057682  0.06930806  0.79042736     0.86500
C548        C  0.86401042  0.06059224  0.75025091    -0.53700
C549        C  0.85055345  0.07107635  0.70790353     0.09400
C550        C  0.80559215  0.09081933  0.71023479     0.20400
C551        C  0.82980147  0.10282820  0.78991098    -0.54400
C552        C  0.81636005  0.11490886  0.74830602     0.09600
C553        C  0.78020780  0.05975500  0.77432683    -0.54000
C554        C  0.76719402  0.07051961  0.73186727     0.10100
H555        H  0.89468556  0.04635312  0.75477080     0.14600
H556        H  0.79480077  0.09934214  0.67582786     0.00400
H557        H  0.83883342  0.11549629  0.82093581     0.14900
H558        H  0.75900706  0.04368714  0.79310631     0.14700
C559        C  0.65709584  0.49774387  0.63854964     0.86500
C560        C  0.64609871  0.47872288  0.68115663    -0.53700
C561        C  0.62827878  0.49416774  0.71846982     0.09400
C562        C  0.60512155  0.01726899  0.71553527     0.20400
C563        C  0.58421562  0.00420093  0.63546270    -0.54400
C564        C  0.57086423  0.02013558  0.67364104     0.09600
C565        C  0.66831222  0.00881355  0.65817778    -0.54000
C566        C  0.65532384  0.02496926  0.69674002     0.10100
H567        H  0.65059624  0.45510951  0.68117505     0.14600
H568        H  0.59441678  0.03040732  0.74662889     0.00400
H569        H  0.56303376  0.00322894  0.60359401     0.14900
H570        H  0.70371367  0.01075113  0.64287207     0.14700
C571        C  0.66573821  0.44580113  0.52854725     0.86500
C572        C  0.64690414  0.45315497  0.98589018    -0.53700
C573        C  0.65227974  0.43766883  0.94533689     0.09400
C574        C  0.69408230  0.41535571  0.94675161     0.20400
C575        C  0.66368321  0.41275760  0.53442384    -0.54400
C576        C  0.68511431  0.39619467  0.99094246     0.09600
C577        C  0.71624750  0.45217170  0.50961443    -0.54000
C578        C  0.73820706  0.43473157  0.95948559     0.10100
H579        H  0.62002706  0.47006576  0.99043597     0.14600
H580        H  0.69856144  0.40285681  0.91368227     0.00400
H581        H  0.65436068  0.40372476  0.56785454     0.14900
H582        H  0.73967354  0.46929167  0.52328644     0.14700
In583      In  0.56428825  0.45274952  0.83022152     1.36900
C584        C  0.47815796  0.47839842  0.83381612     0.77600
O585        O  0.59571777  0.49356284  0.79664144    -0.60800
O586        O  0.60290291  0.45264685  0.76204902    -0.51700
C587        C  0.62297280  0.44435254  0.90356797     0.70300
O588        O  0.58684394  0.46080758  0.90506510    -0.46600
C589        C  0.54314440  0.39717725  0.82074845     0.75000
O590        O  0.51094956  0.48376682  0.86321223    -0.58500
O591        O  0.55991565  0.41184549  0.78761809    -0.48500
O592        O  0.48947123  0.46005820  0.80264470    -0.54900
C593        C  0.60934216  0.47985241  0.76057381     0.85200
O594        O  0.63164744  0.43416532  0.86359982    -0.56800
O595        O  0.53144719  0.41165263  0.85658848    -0.60100
In596      In  0.93192351  0.05491613  0.58845866     1.36900
C597        C  0.01757688  0.03019434  0.59431684     0.77600
O598        O  0.91429506  0.01471086  0.54409614    -0.60800
O599        O  0.88977484  0.05590155  0.52168905    -0.51700
C600        C  0.87622807  0.06262474  0.66440603     0.70300
O601        O  0.91533337  0.04904000  0.66477227    -0.46600
C602        C  0.95255694  0.11011931  0.57867824     0.75000
O603        O  0.98185232  0.02157941  0.61774745    -0.58500
O604        O  0.93520586  0.09480208  0.54597637    -0.48500
O605        O  0.00934136  0.05125707  0.56758593    -0.54900
C606        C  0.89592653  0.02935076  0.51166420     0.85200
O607        O  0.86211457  0.06896891  0.62413218    -0.56800
O608        O  0.96470164  0.09653293  0.61460341    -0.60100
C609        C  0.13448575  0.49439246  0.63160116     0.86500
C610        C  0.07919979  0.00051740  0.63485465    -0.53700
C611        C  0.06517051  0.01656306  0.59751904     0.09400
C612        C  0.10281423  0.01819316  0.55846195     0.20400
C613        C  0.13477750  0.47673986  0.58519721    -0.54400
C614        C  0.12012992  0.49237495  0.54746719     0.09600
C615        C  0.16279627  0.01342247  0.61963297    -0.54000
C616        C  0.14884684  0.02974002  0.58238999     0.10100
H617        H  0.05659797  0.99729140  0.66523552     0.14600
H618        H  0.09125056  0.03128953  0.52814442     0.00400
H619        H  0.14295348  0.45365916  0.58207349     0.14900
H620        H  0.19571019  0.01753907  0.63910832     0.14700
C621        C  0.17116584  0.43735154  0.72502604     0.86500
C622        C  0.17236397  0.40423832  0.72273411    -0.53700
C623        C  0.18587783  0.39074490  0.76290755     0.09400
C624        C  0.19764054  0.41362958  0.80297306     0.20400
C625        C  0.13821685  0.44470349  0.76595552    -0.54400
C626        C  0.15238839  0.43315856  0.80727178     0.09600
C627        C  0.22154013  0.44679085  0.74086898    -0.54000
C628        C  0.23563548  0.43506244  0.78233541     0.10100
H629        H  0.16374757  0.39300286  0.69040648     0.14600
H630        H  0.20891188  0.40387259  0.83640369     0.00400
H631        H  0.10718010  0.45880864  0.76269226     0.14900
H632        H  0.24178973  0.46372337  0.72303164     0.14700
C633        C  0.35141066  0.00903268  0.87190685     0.86500
C634        C  0.41644014  0.51115945  0.87028626    -0.53700
C635        C  0.43080175  0.49289271  0.83482504     0.09400
C636        C  0.39576516  0.49174271  0.79317740     0.22800
C637        C  0.36033475  0.02823451  0.82922271    -0.54400
C638        C  0.37825805  0.01330204  0.79154249     0.09600
C639        C  0.33206892  0.50206029  0.84935322    -0.54000
C640        C  0.34611945  0.48370790  0.81371235     0.10100
H641        H  0.43783786  0.51520157  0.90145200     0.14600
H642        H  0.40737179  0.47710766  0.76415133     0.00400
H643        H  0.35482615  0.05176597  0.82955659     0.14900
H644        H  0.29700443  0.50066118  0.86579279     0.14700
C645        C  0.33985248  0.06304310  0.97932744     0.86500
C646        C  0.34563706  0.09626406  0.97635183    -0.53700
C647        C  0.31832997  0.10745068  0.51926689     0.09400
C648        C  0.30584005  0.08845457  0.56245940     0.20400
C649        C  0.35236574  0.04947108  0.52544827    -0.54400
C650        C  0.34623265  0.06542524  0.56558229     0.09600
C651        C  0.28754546  0.05834349  0.99479707    -0.54000
C652        C  0.26122170  0.07022973  0.54756720     0.10100
H653        H  0.35801757  0.10608525  0.94439596     0.14600
H654        H  0.30045421  0.10101619  0.59532275     0.00400
H655        H  0.37900777  0.03234675  0.52189082     0.14900
H656        H  0.26262506  0.04347375  0.97758373     0.14700
C657        C  0.33155459  0.02537033  0.91357296    -0.16400
C658        C  0.35623086  0.04717878  0.93528312    -0.31600
H659        H  0.29714115  0.01797385  0.92650438     0.12600
H660        H  0.39174389  0.05291043  0.92223410     0.13200
C661        C  0.27564020  0.44877238  0.81013678    -0.16400
C662        C  0.31329022  0.46237005  0.78964799    -0.31600
H663        H  0.27161442  0.44994565  0.84772592     0.12600
H664        H  0.31906988  0.45918078  0.75252739     0.13200
C665        C  0.15558168  0.45046364  0.67966469    -0.16400
C666        C  0.14963115  0.47937880  0.67565546    -0.31600
H667        H  0.14820642  0.43579059  0.65056827     0.12600
H668        H  0.15489249  0.49326228  0.70638186     0.13200
C669        C  0.17890754  0.05269432  0.56051194    -0.16400
C670        C  0.22055260  0.06296071  0.57873513    -0.31600
H671        H  0.17060214  0.05729484  0.52434499     0.12600
H672        H  0.22846267  0.06074699  0.61552647     0.13200
C673        C  0.67709257  0.48119214  0.59718064    -0.16400
C674        C  0.65013004  0.46174029  0.57268181    -0.31600
H675        H  0.71349802  0.48643288  0.58688836     0.12600
H676        H  0.61376053  0.45714832  0.58464008     0.13200
C677        C  0.68906418  0.04410984  0.72352081    -0.16400
C678        C  0.72680997  0.05787388  0.70400143    -0.31600
H679        H  0.68347872  0.04574123  0.76089192     0.12600
H680        H  0.73017482  0.05820687  0.66632682     0.13200
C681        C  0.84878377  0.02745570  0.84307370    -0.16400
C682        C  0.84503755  0.05663555  0.83704715    -0.31600
H683        H  0.84178511  0.01311400  0.81321027     0.12600
H684        H  0.85303485  0.07184503  0.86531927     0.13200
C685        C  0.82044075  0.45130797  0.94473276    -0.16400
C686        C  0.77768550  0.44249692  0.92713715    -0.31600
H687        H  0.82924354  0.44543484  0.98029087     0.12600
H688        H  0.76845186  0.44618127  0.89098371     0.13200
C689        C  0.66650787  0.27429852  0.59218834    -0.16400
C690        C  0.64709519  0.29899148  0.57519850    -0.31600
H691        H  0.69677665  0.26424917  0.57472217     0.12600
H692        H  0.61505512  0.30749036  0.59209961     0.13200
C693        C  0.70040489  0.16908923  0.69363576    -0.16400
C694        C  0.65966247  0.18461477  0.68920475    -0.31600
H695        H  0.69749073  0.14557565  0.68773548     0.12600
H696        H  0.62674243  0.17222210  0.68250956     0.13200
C697        C  0.85663273  0.22330815  0.82932333    -0.16400
C698        C  0.81251143  0.22043699  0.80965389    -0.31600
H699        H  0.88509067  0.20930290  0.81613310     0.12600
H700        H  0.78234057  0.23292181  0.82262398     0.13200
C701        C  0.81670945  0.30020637  0.95430886    -0.16400
C702        C  0.77634656  0.31250433  0.93800487    -0.31600
H703        H  0.82395538  0.30084152  0.99149989     0.12600
H704        H  0.77067673  0.31393127  0.90067852     0.13200
C705        C  0.13874676  0.27944602  0.67563127    -0.16400
C706        C  0.18290806  0.29017496  0.68477219    -0.31600
H707        H  0.10967556  0.28420731  0.69972438     0.12600
H708        H  0.21219336  0.28503799  0.66110015     0.13200
C709        C  0.22155595  0.18866495  0.57409077    -0.16400
C710        C  0.18004826  0.19912434  0.55692694    -0.31600
H711        H  0.22998493  0.19104629  0.61086464     0.12600
H712        H  0.17101960  0.19461922  0.52068614     0.13200
C713        C  0.37327226  0.21714836  0.91971739    -0.16400
C714        C  0.33037511  0.20970285  0.93740190    -0.31600
H715        H  0.40571882  0.21015403  0.93738594     0.12600
H716        H  0.29779369  0.21711146  0.92047645     0.13200
C717        C  0.30939010  0.30403407  0.83687238    -0.16400
C718        C  0.30598457  0.32080748  0.79937192    -0.31600
H719        H  0.27779892  0.30214204  0.85905279     0.12600
H720        H  0.33615734  0.32211057  0.77556313     0.13200
In721      In  0.56965170  0.80902052  0.33063993     1.36900
C722        C  0.54792484  0.86425399  0.32395475     0.77600
O723        O  0.49197420  0.80357129  0.30666495    -0.60800
O724        O  0.51984679  0.77524956  0.35783247    -0.51700
C725        C  0.61718046  0.77971336  0.26336880     0.70300
O726        O  0.61135055  0.80700238  0.26266801    -0.46600
C727        C  0.62218013  0.81712688  0.40835154     0.75000
O728        O  0.56501182  0.84994241  0.29004497    -0.58500
O729        O  0.58418102  0.80195360  0.40680444    -0.48500
O730        O  0.53741426  0.84965391  0.35944593    -0.54900
C731        C  0.48384186  0.78302390  0.33455360     0.85200
O732        O  0.60150956  0.76777314  0.29971635    -0.56800
O733        O  0.63570952  0.82636105  0.36928459    -0.60100
In734      In  0.92931477  0.69567776  0.08296426     1.36900
C735        C  0.95266589  0.64089104  0.07793750     0.77600
O736        O  0.00405784  0.70164783  0.05410011    -0.60800
O737        O  0.98613838  0.72195844  0.11884051    -0.51700
C738        C  0.88512182  0.72460673  0.01603008     0.70300
O739        O  0.88208494  0.69725503  0.02014451    -0.46600
C740        C  0.87004664  0.68970471  0.15491550     0.75000
O741        O  0.93898778  0.65445121  0.04232031    -0.58500
O742        O  0.90286791  0.70900610  0.15362943    -0.48500
O743        O  0.95825695  0.65598563  0.11455118    -0.54900
C744        C  0.01792953  0.71703175  0.08845837     0.85200
O745        O  0.90819568  0.73759882  0.04813029    -0.56800
O746        O  0.86443867  0.67533219  0.11759849    -0.60100
C747        C  0.37931049  0.73581839  0.37717255     0.86500
C748        C  0.37324722  0.72170775  0.32905364    -0.53700
C749        C  0.38210025  0.74024161  0.29289659     0.09400
C750        C  0.39209329  0.77227100  0.30900207     0.20400
C751        C  0.42918342  0.75006003  0.37662727    -0.54400
C752        C  0.43633262  0.76911259  0.34114263     0.09600
C753        C  0.34442135  0.76138048  0.37833800    -0.54000
C754        C  0.34955098  0.78036680  0.34238340     0.10100
H755        H  0.36920202  0.69812804  0.32450329     0.14600
H756        H  0.39804510  0.78746846  0.27971160     0.00400
H757        H  0.45693635  0.74508668  0.40194232     0.14900
H758        H  0.31594489  0.76331567  0.40405716     0.14700
C759        C  0.32411182  0.68825930  0.47478822     0.86500
C760        C  0.36552779  0.70139141  0.02650181    -0.53700
C761        C  0.35666413  0.68624234  0.06585677     0.09400
C762        C  0.31419763  0.66398424  0.06100305     0.20400
C763        C  0.33239951  0.65525262  0.47247269    -0.54400
C764        C  0.32624165  0.64439447  0.01751078     0.09600
C765        C  0.27306231  0.69156204  0.49331371    -0.54000
C766        C  0.27153168  0.68297328  0.04505262     0.10100
H767        H  0.39397485  0.71784102  0.02419315     0.14600
H768        H  0.30672510  0.65196735  0.09351240     0.00400
H769        H  0.34253753  0.64454586  0.44010624     0.14900
H770        H  0.24709752  0.70561933  0.47662138     0.14700
C771        C  0.12950818  0.76029198  0.12624175     0.86500
C772        C  0.12727530  0.77719456  0.08052510    -0.53700
C773        C  0.11386208  0.76037429  0.04283344     0.09400
C774        C  0.10537779  0.72794393  0.05426463     0.20400
C775        C  0.08008896  0.74570643  0.13056629    -0.54400
C776        C  0.06700003  0.72905606  0.09290674     0.09600
C777        C  0.16422344  0.73492366  0.11679471    -0.54000
C778        C  0.15232993  0.71821372  0.07832904     0.10100
H779        H  0.13212935  0.80081267  0.07898150     0.14600
H780        H  0.09480175  0.71426815  0.02352972     0.00400
H781        H  0.05648445  0.74929326  0.16019916     0.14900
H782        H  0.19724343  0.73221407  0.13634537     0.14700
C783        C  0.19474764  0.80670445  0.22308232     0.86500
C784        C  0.16849223  0.79540562  0.26606183    -0.53700
C785        C  0.17578983  0.81180975  0.30537765     0.09400
C786        C  0.21302894  0.83731799  0.29880142     0.20400
C787        C  0.18097019  0.83895184  0.21991904    -0.54400
C788        C  0.19155566  0.85602952  0.25892135     0.09600
C789        C  0.24757664  0.80723265  0.23622783    -0.54000
C790        C  0.25786287  0.82242209  0.27606439     0.10100
H791        H  0.14300758  0.77721063  0.26458292     0.14600
H792        H  0.22131317  0.84984469  0.33127058     0.00400
H793        H  0.16496406  0.84678949  0.18817484     0.14900
H794        H  0.27449072  0.79472630  0.21728707     0.14700
In795      In  0.44668818  0.69988923  0.17963013     1.36900
C796        C  0.53700560  0.72073483  0.17516343     0.77600
O797        O  0.42234664  0.74156874  0.21784709    -0.60800
O798        O  0.39956112  0.70016303  0.24184683    -0.51700
C799        C  0.38592470  0.69215136  0.10802930     0.70300
O800        O  0.41511593  0.71351351  0.11133323    -0.46600
C801        C  0.46740173  0.64472524  0.18815344     0.75000
O802        O  0.50661721  0.72470470  0.14316620    -0.58500
O803        O  0.45089739  0.65964351  0.22166115    -0.48500
O804        O  0.52065443  0.70709887  0.20968965    -0.54900
C805        C  0.40038797  0.72737349  0.24881960     0.85200
O806        O  0.38529794  0.67589408  0.14283841    -0.56800
O807        O  0.47850766  0.65878640  0.15217019    -0.60100
In808      In  0.07291450  0.80459803  0.41078143     1.36900
C809        C  0.98108609  0.78637120  0.40368638     0.77600
O810        O  0.09068127  0.76244432  0.44801688    -0.60800
O811        O  0.11165834  0.80345153  0.47769509    -0.51700
C812        C  0.14216617  0.80820284  0.34518990     0.70300
O813        O  0.11324372  0.78672764  0.34837814    -0.46600
C814        C  0.05259546  0.85973052  0.42264340     0.75000
O815        O  0.00989581  0.78543276  0.36959474    -0.58500
O816        O  0.07369913  0.84511819  0.45332314    -0.48500
O817        O  0.99968430  0.79576355  0.44105479    -0.54900
C818        C  0.10907193  0.77615047  0.48225152     0.85200
O819        O  0.13707706  0.82725608  0.37662145    -0.56800
O820        O  0.03920201  0.84569562  0.38665098    -0.60100
C821        C  0.86074943  0.74951803  0.37074153     0.86500
C822        C  0.91135447  0.76224646  0.36308305    -0.53700
C823        C  0.92997804  0.77673273  0.40099201     0.09400
C824        C  0.89514621  0.77807891  0.44300685     0.20400
C825        C  0.86573438  0.73080225  0.41519696    -0.54400
C826        C  0.88354681  0.74600422  0.45282329     0.09600
C827        C  0.83013700  0.77557764  0.38620265    -0.54000
C828        C  0.84704938  0.79012919  0.42510999     0.10100
H829        H  0.93166503  0.75863544  0.33128096     0.14600
H830        H  0.90993780  0.79031066  0.47364264     0.00400
H831        H  0.85742780  0.70769943  0.41773009     0.14900
H832        H  0.79479656  0.77922591  0.37136376     0.14700
C833        C  0.81857980  0.69005804  0.27803586     0.86500
C834        C  0.82686738  0.65699571  0.28292985    -0.53700
C835        C  0.81836581  0.64041445  0.24362488     0.09400
C836        C  0.80284647  0.65959455  0.20204055     0.20400
C837        C  0.85086199  0.69903140  0.23766279    -0.54400
C838        C  0.84225706  0.68368278  0.19751486     0.09600
C839        C  0.76682867  0.69246080  0.25964731    -0.54000
C840        C  0.75824885  0.67617209  0.21998082     0.10100
H841        H  0.83791692  0.64786711  0.31580773     0.14600
H842        H  0.79589862  0.64728698  0.16913785     0.00400
H843        H  0.87834518  0.71606461  0.24051091     0.14900
H844        H  0.73840543  0.70312493  0.27928744     0.14700
C845        C  0.66118347  0.75396624  0.14263348     0.86500
C846        C  0.60878090  0.74299149  0.13459576    -0.53700
C847        C  0.58768978  0.73110490  0.17310511     0.09400
C848        C  0.62126379  0.73037094  0.21550769     0.20400
C849        C  0.65744555  0.77497287  0.18503652    -0.54400
C850        C  0.63610939  0.76261348  0.22318440     0.09600
C851        C  0.68778029  0.72692816  0.16091528    -0.54000
C852        C  0.66628370  0.71404646  0.19846938     0.10100
H853        H  0.58988258  0.74500656  0.10168240     0.14600
H854        H  0.60449262  0.72033517  0.24666071     0.00400
H855        H  0.66745043  0.79801549  0.18372238     0.14900
H856        H  0.71643940  0.71639976  0.14142634     0.14700
C857        C  0.67673994  0.80380065  0.03037033     0.86500
C858        C  0.67113452  0.83704055  0.03684775    -0.53700
C859        C  0.67984380  0.86594308  0.49828080     0.09400
C860        C  0.69112532  0.84506034  0.45670833     0.20400
C861        C  0.63720050  0.80982669  0.49306086    -0.54400
C862        C  0.64803151  0.82368730  0.45249008     0.09600
C863        C  0.72817386  0.80048252  0.01031253    -0.54000
C864        C  0.73216861  0.82560709  0.47374697     0.10100
H865        H  0.66197633  0.84585149  0.07076970     0.14600
H866        H  0.69959466  0.85620533  0.42361264     0.00400
H867        H  0.60794581  0.79396963  0.49582346     0.14900
H868        H  0.75707043  0.79010537  0.02924069     0.14700
In869      In  0.06796290  0.94721390  0.42122968     1.36900
C870        C  0.05047905  0.89124311  0.42592327     0.77600
O871        O  0.98951378  0.95040853  0.43886043    -0.60800
O872        O  0.02007603  0.98274806  0.39496035    -0.51700
C873        C  0.10191854  0.97267870  0.49966182     0.70300
O874        O  0.09506224  0.94560666  0.49469756    -0.46600
C875        C  0.12513918  0.93960428  0.34597131     0.75000
O876        O  0.07350181  0.90505457  0.45708256    -0.58500
O877        O  0.08636890  0.95355556  0.34535173    -0.48500
O878        O  0.03117801  0.90658348  0.39498979    -0.54900
C879        C  0.98309331  0.97318613  0.41539650     0.85200
O880        O  0.09539361  0.98706423  0.46290245    -0.56800
O881        O  0.13799628  0.93244939  0.38626843    -0.60100
In882      In  0.43977438  0.55812314  0.17893935     1.36900
C883        C  0.46549050  0.61310817  0.18793461     0.77600
O884        O  0.51466478  0.54984366  0.20286797    -0.60800
O885        O  0.48641311  0.52430038  0.14634191    -0.51700
C886        C  0.39746320  0.53140143  0.24933601     0.70300
O887        O  0.40168489  0.55874533  0.24670476    -0.46600
C888        C  0.38352343  0.56496274  0.10509929     0.75000
O889        O  0.44637000  0.59920206  0.22070515    -0.58500
O890        O  0.42244318  0.55125012  0.10416043    -0.48500
O891        O  0.47611801  0.59815987  0.15232331    -0.54900
C892        C  0.52168852  0.53013367  0.17253227     0.85200
O893        O  0.41094943  0.51738633  0.21362770    -0.56800
O894        O  0.37086984  0.57360833  0.14501543    -0.60100
C895        C  0.87140748  0.51807800  0.38673661     0.86500
C896        C  0.87679688  0.53621172  0.43166686    -0.53700
C897        C  0.88745810  0.52017711  0.47002929     0.09400
C898        C  0.89795607  0.98539209  0.45086424     0.20400
C899        C  0.92254180  0.00404042  0.37550521    -0.54400
C900        C  0.93603381  0.98750952  0.41240073     0.09600
C901        C  0.83871715  0.99056487  0.38928689    -0.54000
C902        C  0.85214821  0.97410911  0.42660047     0.10100
H903        H  0.87507222  0.55999881  0.43251543     0.14600
H904        H  0.90929480  0.97194207  0.48085906     0.00400
H905        H  0.94552122  0.00754712  0.34546588     0.14900
H906        H  0.80570086  0.98677675  0.36979499     0.14700
C907        C  0.81851795  0.55833653  0.27842148     0.86500
C908        C  0.85352057  0.54919044  0.23989397    -0.53700
C909        C  0.84764399  0.56397393  0.19938354     0.09400
C910        C  0.80729722  0.58700164  0.20120050     0.20400
C911        C  0.82555260  0.59150393  0.28422889    -0.54400
C912        C  0.81911584  0.60722087  0.24394407     0.09600
C913        C  0.76880895  0.55473786  0.25675121    -0.54000
C914        C  0.76274118  0.56924269  0.21594121     0.10100
H915        H  0.88007145  0.53212896  0.24409439     0.14600
H916        H  0.80228844  0.59849865  0.16782092     0.00400
H917        H  0.83295930  0.60113425  0.31817585     0.14900
H918        H  0.74231152  0.53943652  0.27033361     0.14700
C919        C  0.64390141  0.99501428  0.13507820     0.86500
C920        C  0.63658896  0.97684445  0.17972555    -0.53700
C921        C  0.62242588  0.99303948  0.21769824     0.09400
C922        C  0.60629921  0.51661419  0.20578668     0.20400
C923        C  0.57966322  0.49866331  0.12991176    -0.54400
C924        C  0.56767996  0.51523689  0.16791014     0.09600
C925        C  0.66407452  0.51100567  0.14268772    -0.54000
C926        C  0.65152522  0.52762761  0.18080619     0.10100
H927        H  0.64056734  0.95332575  0.18171909     0.14600
H928        H  0.59615738  0.53001738  0.23679713     0.00400
H929        H  0.55583725  0.49544192  0.10019377     0.14900
H930        H  0.69571352  0.51571097  0.12219550     0.14700
C931        C  0.67030726  0.93520361  0.03811446     0.86500
C932        C  0.64787199  0.95677670  0.49081628    -0.53700
C933        C  0.65370234  0.94092883  0.45053971     0.09400
C934        C  0.69390452  0.91786197  0.45328896     0.20400
C935        C  0.66833715  0.90191361  0.04046066    -0.54400
C936        C  0.68236413  0.89908978  0.49704538     0.09600
C937        C  0.72009237  0.94227637  0.01866956    -0.54000
C938        C  0.73859934  0.93626063  0.46682702     0.10100
H939        H  0.62155661  0.97408977  0.49450544     0.14600
H940        H  0.69863343  0.90522945  0.42040738     0.00400
H941        H  0.66057888  0.89145388  0.07315186     0.14900
H942        H  0.74364641  0.95854108  0.03500072     0.14700
In943      In  0.56731071  0.95162625  0.33373633     1.36900
C944        C  0.47978494  0.97344003  0.33959025     0.77600
O945        O  0.58904309  0.99320438  0.29561044    -0.60800
O946        O  0.60801239  0.95209400  0.26683320    -0.51700
C947        C  0.62556577  0.94669821  0.40784233     0.70300
O948        O  0.59010844  0.96361281  0.40726312    -0.46600
C949        C  0.54742396  0.89586981  0.32478168     0.75000
O950        O  0.51308188  0.98031308  0.36767850    -0.58500
O951        O  0.56521620  0.91049344  0.29212272    -0.48500
O952        O  0.49126310  0.95541088  0.30805164    -0.54900
C953        C  0.60695151  0.97931440  0.26162841     0.85200
O954        O  0.63421057  0.93462477  0.36917692    -0.56800
O955        O  0.53529573  0.91030735  0.36052096    -0.60100
In956      In  0.93786028  0.55372479  0.08605687     1.36900
C957        C  0.02510619  0.53160345  0.09391487     0.77600
O958        O  0.91671502  0.51360557  0.04304950    -0.60800
O959        O  0.89932631  0.55569650  0.01840020    -0.51700
C960        C  0.87742822  0.55801137  0.15796846     0.70300
O961        O  0.91632916  0.54423356  0.15990617    -0.46600
C962        C  0.95504583  0.60945323  0.07899503     0.75000
O963        O  0.98882711  0.52029716  0.11326688    -0.58500
O964        O  0.94499289  0.59376889  0.04386360    -0.48500
O965        O  0.01668865  0.55393239  0.07016197    -0.54900
C966        C  0.90028932  0.52866878  0.01020249     0.85200
O967        O  0.86709671  0.56712565  0.11811027    -0.56800
O968        O  0.96137314  0.59612754  0.11665964    -0.60100
C969        C  0.14163754  0.99208582  0.12218584     0.86500
C970        C  0.08800330  0.50425506  0.13586621    -0.53700
C971        C  0.07344795  0.51939671  0.09793413     0.09400
C972        C  0.11019845  0.52011432  0.05804282     0.20400
C973        C  0.13486195  0.97219783  0.07837197    -0.54400
C974        C  0.12008626  0.98680963  0.03959387     0.09600
C975        C  0.17145046  0.51644171  0.11814705    -0.54000
C976        C  0.15734539  0.53161349  0.07968460     0.10100
H977        H  0.06563322  0.50143498  0.16652871     0.14600
H978        H  0.09798590  0.53265708  0.02736191     0.00400
H979        H  0.13940151  0.94868096  0.07751711     0.14900
H980        H  0.20557998  0.52026192  0.13573655     0.14700
C981        C  0.17473501  0.93649541  0.22110912     0.86500
C982        C  0.17459604  0.90324128  0.21867074    -0.53700
C983        C  0.18627791  0.88928747  0.25895719     0.09400
C984        C  0.19666755  0.91179404  0.29978225     0.20400
C985        C  0.14034409  0.94423194  0.26093815    -0.54400
C986        C  0.15204516  0.93203881  0.30265621     0.09600
C987        C  0.22484312  0.94499246  0.23932183    -0.54000
C988        C  0.23636588  0.93273253  0.28126642     0.10100
H989        H  0.16710384  0.89217775  0.18594302     0.14600
H990        H  0.20603652  0.90161803  0.33344691     0.00400
H991        H  0.11035838  0.95904558  0.25677133     0.14900
H992        H  0.24675831  0.96162633  0.22264003     0.14700
C993        C  0.36423895  0.51541189  0.37524939     0.86500
C994        C  0.41812269  0.00199303  0.38113631    -0.53700
C995        C  0.43182404  0.98636587  0.34284793     0.09400
C996        C  0.39650520  0.98800410  0.30167453     0.22800
C997        C  0.37053590  0.53347182  0.33119496    -0.54400
C998        C  0.38184450  0.51736386  0.29253284     0.09600
C999        C  0.33377494  0.99477627  0.36012254    -0.54000
C1000       C  0.34711757  0.97886079  0.32127912     0.10100
H1001       H  0.44011989  0.00383980  0.41241630     0.14600
H1002       H  0.40781896  0.97516489  0.27047502     0.00400
H1003       H  0.36867550  0.55725198  0.33124199     0.14900
H1004       H  0.29901080  0.99185425  0.37644965     0.14700
C1005       C  0.31751706  0.55707557  0.48568056     0.86500
C1006       C  0.32464830  0.58991855  0.47650644    -0.53700
C1007       C  0.32566442  0.61109411  0.01597134     0.09400
C1008       C  0.31327050  0.59121199  0.05799608     0.20400
C1009       C  0.36626819  0.55525495  0.02236033    -0.54400
C1010       C  0.35604186  0.57021240  0.06231750     0.09600
C1011       C  0.26977291  0.55503482  0.51085531    -0.54000
C1012       C  0.27172487  0.57115054  0.04098309     0.10100
H1013       H  0.32931620  0.59783620  0.44140874     0.14600
H1014       H  0.30506431  0.60300802  0.09097102     0.00400
H1015       H  0.39513860  0.53942383  0.01991738     0.14900
H1016       H  0.24146393  0.53986357  0.49984237     0.14700
C1017       C  0.35793131  0.53546491  0.41693463    -0.16400
C1018       C  0.31855423  0.53717759  0.44327288    -0.31600
H1019       H  0.38824086  0.54981613  0.42558589     0.12600
H1020       H  0.28720005  0.52378695  0.43506562     0.13200
C1021       C  0.27545949  0.94518028  0.31163094    -0.16400
C1022       C  0.31437421  0.95898986  0.29401340    -0.31600
H1023       H  0.26985989  0.94500862  0.34903890     0.12600
H1024       H  0.32159377  0.95707248  0.25694331     0.13200
C1025       C  0.16154863  0.94945764  0.17446900    -0.16400
C1026       C  0.15742497  0.97836499  0.16770084    -0.31600
H1027       H  0.15402167  0.93426488  0.14615636     0.12600
H1028       H  0.16400556  0.99316763  0.19706919     0.13200
C1029       C  0.19020493  0.55068223  0.05272969    -0.16400
C1030       C  0.23009969  0.56332939  0.07076192    -0.31600
H1031       H  0.18403806  0.55130841  0.01538347     0.12600
H1032       H  0.23494227  0.56489798  0.10823881     0.13200
C1033       C  0.65841218  0.97907812  0.09040994    -0.16400
C1034       C  0.65971292  0.94977793  0.08471780    -0.31600
H1035       H  0.66560550  0.99263625  0.06027666     0.12600
H1036       H  0.65155757  0.93558187  0.11357401     0.13200
C1037       C  0.68110751  0.55140501  0.20186783    -0.16400
C1038       C  0.72298376  0.56092475  0.18409017    -0.31600
H1039       H  0.67224960  0.55738296  0.23761611     0.12600
H1040       H  0.73180907  0.55733234  0.14768087     0.13200
C1041       C  0.86425316  0.53774055  0.34519854    -0.16400
C1042       C  0.82269246  0.54045798  0.32219784    -0.31600
H1043       H  0.89504523  0.55072804  0.33397796     0.12600
H1044       H  0.79098764  0.52881267  0.33406489     0.13200
C1045       C  0.82076079  0.95257612  0.45025478    -0.16400
C1046       C  0.77777219  0.94347903  0.43390863    -0.31600
H1047       H  0.82994152  0.94800251  0.48621391     0.12600
H1048       H  0.76834130  0.94587344  0.39750354     0.13200
C1049       C  0.68405112  0.76749172  0.09902736    -0.16400
C1050       C  0.66115958  0.78854658  0.07526706    -0.31600
H1051       H  0.71801581  0.75914575  0.08618935     0.12600
H1052       H  0.62626181  0.79524488  0.08847853     0.13200
C1053       C  0.70927561  0.66570029  0.20754367    -0.16400
C1054       C  0.66921190  0.68191507  0.20530766    -0.31600
H1055       H  0.70478675  0.64205952  0.20474490     0.12600
H1056       H  0.63517583  0.67006994  0.20339035     0.13200
C1057       C  0.84104067  0.73454849  0.32684631    -0.16400
C1058       C  0.82852607  0.70599127  0.32370787    -0.31600
H1059       H  0.83934860  0.74777461  0.29575602     0.12600
H1060       H  0.82928897  0.69250446  0.35418634     0.13200
C1061       C  0.81404817  0.80610910  0.45716299    -0.16400
C1062       C  0.77312225  0.81844466  0.44249838    -0.31600
H1063       H  0.82140200  0.80489734  0.49423274     0.12600
H1064       H  0.76748017  0.82159666  0.40547946     0.13200
C1065       C  0.14045491  0.77987221  0.16773794    -0.16400
C1066       C  0.18503476  0.78881934  0.17924374    -0.31600
H1067       H  0.11058019  0.78661241  0.18964280     0.12600
H1068       H  0.21521807  0.78180029  0.15801137     0.13200
C1069       C  0.22819362  0.68912391  0.07377085    -0.16400
C1070       C  0.18715040  0.69870379  0.05415091    -0.31600
H1071       H  0.23265647  0.68959146  0.11132793     0.12600
H1072       H  0.18203952  0.69585088  0.01683001     0.13200
C1073       C  0.37391310  0.71447290  0.41626282    -0.16400
C1074       C  0.33096857  0.70369839  0.42905218    -0.31600
H1075       H  0.40573360  0.70911272  0.43627402     0.12600
H1076       H  0.29928370  0.70947658  0.40906618     0.13200
C1077       C  0.31036547  0.80200745  0.33459670    -0.16400
C1078       C  0.30636725  0.81825784  0.29641341    -0.31600
H1079       H  0.27882276  0.80012408  0.35680960     0.12600
H1080       H  0.33652779  0.81939289  0.27255666     0.13200
In1081     In  0.55841324  0.80274971  0.83639901     1.36900
C1082       C  0.53395718  0.85752708  0.83485249     0.77600
O1083       O  0.48208411  0.79702593  0.80885697    -0.60800
O1084       O  0.50369755  0.77145036  0.86597766    -0.51700
C1085       C  0.60670812  0.77874695  0.76500841     0.70300
O1086       O  0.60403399  0.80593535  0.77157240    -0.46600
C1087       C  0.61960324  0.80709286  0.90891391     0.75000
O1088       O  0.54611138  0.84368968  0.79855783    -0.58500
O1089       O  0.58442920  0.78938161  0.90756675    -0.48500
O1090       O  0.52997686  0.84267922  0.87134884    -0.54900
C1091       C  0.47020291  0.77821995  0.83851004     0.85200
O1092       O  0.58677115  0.76372209  0.79625355    -0.56800
O1093       O  0.62512395  0.82143500  0.87220380    -0.60100
In1094     In  0.92927189  0.70568395  0.57213053     1.36900
C1095       C  0.94676236  0.64975994  0.57031869     0.77600
O1096       O  0.00408106  0.70931238  0.54339877    -0.60800
O1097       O  0.98730841  0.73285349  0.60558250    -0.51700
C1098       C  0.89538949  0.73201247  0.49713763     0.70300
O1099       O  0.89845407  0.70472895  0.50039480    -0.46600
C1100       C  0.86954574  0.70396232  0.64530626     0.75000
O1101       O  0.91816170  0.66157876  0.54239487    -0.58500
O1102       O  0.90330964  0.72243729  0.64186460    -0.48500
O1103       O  0.96900710  0.66684359  0.59790350    -0.54900
C1104       C  0.01869052  0.72615485  0.57564248     0.85200
O1105       O  0.90596020  0.74613399  0.53386558    -0.56800
O1106       O  0.86337092  0.68823114  0.60955694    -0.60100
C1107       C  0.36076438  0.72961944  0.86644608     0.86500
C1108       C  0.36121049  0.71779460  0.81642757    -0.53700
C1109       C  0.37336156  0.73808876  0.78367919     0.09400
C1110       C  0.38079601  0.76932644  0.80464304     0.20400
C1111       C  0.41032071  0.74414138  0.87333072    -0.54400
C1112       C  0.42147076  0.76472744  0.84080177     0.09600
C1113       C  0.32516558  0.75463066  0.86617629    -0.54000
C1114       C  0.33471954  0.77566051  0.83444236     0.10100
H1115       H  0.35765085  0.69453054  0.80843851     0.14600
H1116       H  0.38925138  0.78615353  0.77823227     0.00400
H1117       H  0.43515952  0.73772613  0.90051525     0.14900
H1118       H  0.29364457  0.75514144  0.88854483     0.14700
C1119       C  0.33168035  0.69413480  0.98627179     0.86500
C1120       C  0.35633511  0.69994529  0.51447886    -0.53700
C1121       C  0.34972587  0.68634199  0.55572766     0.09400
C1122       C  0.30966518  0.66231793  0.55393246     0.20400
C1123       C  0.33583638  0.66086200  0.97869301    -0.54400
C1124       C  0.32377348  0.64085505  0.51342856     0.09600
C1125       C  0.28125450  0.69858568  0.00579954    -0.54000
C1126       C  0.26512392  0.67857430  0.53527206     0.10100
H1127       H  0.38223234  0.71770585  0.51059924     0.14600
H1128       H  0.30316947  0.65187204  0.58799186     0.00400
H1129       H  0.34530303  0.65140553  0.94538440     0.14900
H1130       H  0.25670168  0.71449139  0.99144426     0.14700
C1131       C  0.13663520  0.76449364  0.60977140     0.86500
C1132       C  0.13921016  0.77942345  0.56259713    -0.53700
C1133       C  0.12261406  0.76250345  0.52638040     0.09400
C1134       C  0.10697283  0.73147899  0.54073557     0.20400
C1135       C  0.08403611  0.75454687  0.61426258    -0.54400
C1136       C  0.06855807  0.73704260  0.57843790     0.09600
C1137       C  0.16564597  0.73640518  0.60375269    -0.54000
C1138       C  0.15095106  0.71914102  0.56686694     0.10100
H1139       H  0.14928613  0.80234469  0.55889018     0.14600
H1140       H  0.09419474  0.71753391  0.51110274     0.00400
H1141       H  0.06079786  0.76120167  0.64281595     0.14900
H1142       H  0.19773481  0.73242682  0.62415030     0.14700
C1143       C  0.16152580  0.79718522  0.73248672     0.86500
C1144       C  0.13951046  0.78799030  0.77817235    -0.53700
C1145       C  0.15353043  0.80431205  0.81572689     0.09400
C1146       C  0.19261718  0.82818962  0.80359151     0.20400
C1147       C  0.15093153  0.82996968  0.72897487    -0.54400
C1148       C  0.16873540  0.84717431  0.76515944     0.09600
C1149       C  0.21539250  0.79538704  0.73920498    -0.54000
C1150       C  0.23260598  0.81113731  0.77617449     0.10100
H1151       H  0.11156213  0.77119291  0.77986702     0.14600
H1152       H  0.20624697  0.84089792  0.83414991     0.00400
H1153       H  0.13179665  0.83823624  0.69914935     0.14900
H1154       H  0.23812113  0.78182464  0.71711398     0.14700
In1155     In  0.44240077  0.70359616  0.66712668     1.36900
C1156       C  0.53200016  0.72591668  0.66537035     0.77600
O1157       O  0.41574017  0.74336888  0.70969902    -0.60800
O1158       O  0.39478698  0.70063385  0.72892919    -0.51700
C1159       C  0.37995466  0.69418744  0.59684155     0.70300
O1160       O  0.40999459  0.71528105  0.59744085    -0.46600
C1161       C  0.46983539  0.64930303  0.67079399     0.75000
O1162       O  0.50107798  0.73199028  0.63463799    -0.58500
O1163       O  0.45634249  0.66327045  0.70657649    -0.48500
O1164       O  0.51633828  0.70967802  0.69715747    -0.54900
C1165       C  0.39399417  0.72751681  0.73881665     0.85200
O1166       O  0.37953145  0.67947995  0.63343771    -0.56800
O1167       O  0.47354314  0.66387924  0.63399112    -0.60100
In1168     In  0.05729691  0.79971747  0.92689134     1.36900
C1169       C  0.96617759  0.77877204  0.92174633     0.77600
O1170       O  0.07971050  0.75914440  0.96555689    -0.60800
O1171       O  0.09817114  0.80090065  0.99367660    -0.51700
C1172       C  0.12360882  0.80166806  0.85853808     0.70300
O1173       O  0.09175479  0.78184327  0.86238156    -0.46600
C1174       C  0.03767005  0.85540023  0.93200238     0.75000
O1175       O  0.99631671  0.77469852  0.88945947    -0.58500
O1176       O  0.05008008  0.84111876  0.96720488    -0.48500
O1177       O  0.98279248  0.79314162  0.95594674    -0.54900
C1178       C  0.09795739  0.77363609  0.99900455     0.85200
O1179       O  0.12411281  0.81981054  0.89181869    -0.56800
O1180       O  0.03136159  0.84068914  0.89491749    -0.60100
C1181       C  0.84260624  0.74225061  0.89344519     0.86500
C1182       C  0.89522042  0.75236355  0.88445522    -0.53700
C1183       C  0.91562138  0.76767451  0.92081765     0.09400
C1184       C  0.88172671  0.77114919  0.96282067     0.20400
C1185       C  0.84576675  0.72468833  0.93851231    -0.54400
C1186       C  0.86699738  0.73964025  0.97465658     0.09600
C1187       C  0.81535732  0.77028084  0.90712114    -0.54000
C1188       C  0.83588439  0.78540877  0.94370394     0.10100
H1189       H  0.91471451  0.74738625  0.85260975     0.14600
H1190       H  0.89818166  0.78348228  0.99255124     0.00400
H1191       H  0.83577554  0.70165831  0.94047999     0.14900
H1192       H  0.78529331  0.77859136  0.88722884     0.14700
C1193       C  0.81776436  0.71027129  0.76845083     0.86500
C1194       C  0.83425717  0.67875623  0.77853759    -0.53700
C1195       C  0.82775710  0.65898112  0.74259320     0.09400
C1196       C  0.80760628  0.67379131  0.69835184     0.20400
C1197       C  0.84648381  0.71900091  0.72538314    -0.54400
C1198       C  0.84152804  0.70011989  0.68858585     0.09600
C1199       C  0.76539131  0.70695278  0.75132027    -0.54000
C1200       C  0.76009181  0.68784570  0.71435716     0.10100
H1201       H  0.84863000  0.67281825  0.81211966     0.14600
H1202       H  0.80297767  0.65889245  0.66788360     0.00400
H1203       H  0.86974142  0.73827238  0.72440559     0.14900
H1204       H  0.73514340  0.71707338  0.76893160     0.14700
C1205       C  0.65453527  0.76392527  0.64136646     0.86500
C1206       C  0.60325254  0.75221499  0.63011303    -0.53700
C1207       C  0.58246666  0.73689297  0.66550811     0.09400
C1208       C  0.61538726  0.73376901  0.70814232     0.20400
C1209       C  0.64842338  0.78146585  0.68728565    -0.54400
C1210       C  0.62737198  0.76555033  0.72222668     0.09600
C1211       C  0.68314362  0.73651870  0.65508406    -0.54000
C1212       C  0.66240101  0.72047660  0.68968023     0.10100
H1213       H  0.58462136  0.75647993  0.59767273     0.14600
H1214       H  0.59887570  0.72086886  0.73662959     0.00400
H1215       H  0.65666834  0.80470411  0.69063852     0.14900
H1216       H  0.71375672  0.72862053  0.63523022     0.14700
C1217       C  0.67112609  0.81744749  0.53378835     0.86500
C1218       C  0.66917201  0.85087549  0.53822041    -0.53700
C1219       C  0.67889582  0.85377791  0.99798546     0.09400
C1220       C  0.69168593  0.83437016  0.95526570     0.20400
C1221       C  0.64306484  0.79569540  0.99009169    -0.54400
C1222       C  0.65056022  0.81131512  0.95066492     0.09600
C1223       C  0.72200578  0.81123870  0.51446150    -0.54000
C1224       C  0.73634889  0.81704528  0.97110420     0.10100
H1225       H  0.65989031  0.86119119  0.57109942     0.14600
H1226       H  0.69786858  0.84685884  0.92288969     0.00400
H1227       H  0.61481823  0.77917937  0.99295031     0.14900
H1228       H  0.74635261  0.79552486  0.52929904     0.14700
In1229     In  0.06075463  0.94246478  0.92569508     1.36900
C1230       C  0.03790406  0.88705553  0.93244880     0.77600
O1231       O  0.98518387  0.94926464  0.95251593    -0.60800
O1232       O  0.00804390  0.97339328  0.89388346    -0.51700
C1233       C  0.10402577  0.97130907  0.99644516     0.70300
O1234       O  0.09995926  0.94387992  0.99416402    -0.46600
C1235       C  0.11688723  0.93308428  0.85055381     0.75000
O1236       O  0.05421534  0.90168205  0.96658490    -0.58500
O1237       O  0.08117766  0.94986540  0.85095664    -0.48500
O1238       O  0.02808218  0.90146494  0.89667263    -0.54900
C1239       C  0.97458150  0.96775423  0.92209141     0.85200
O1240       O  0.09008499  0.98417750  0.96027566    -0.56800
O1241       O  0.12770666  0.92355291  0.89014995    -0.60100
In1242     In  0.45493509  0.56192024  0.66612429     1.36900
C1243       C  0.47318738  0.61780833  0.67047639     0.77600
O1244       O  0.52668890  0.55485199  0.69901674    -0.60800
O1245       O  0.51492185  0.53803833  0.63049867    -0.51700
C1246       C  0.41132300  0.53614706  0.73613290     0.70300
O1247       O  0.41350582  0.56336993  0.73083923    -0.46600
C1248       C  0.38818948  0.56344210  0.59974854     0.75000
O1249       O  0.46270974  0.60326784  0.70602898    -0.58500
O1250       O  0.42259868  0.54554206  0.59852317    -0.48500
O1251       O  0.47977015  0.60322808  0.63342599    -0.54900
C1252       C  0.54339033  0.54101650  0.66461901     0.85200
O1253       O  0.42979104  0.52113064  0.70365112    -0.56800
O1254       O  0.38669185  0.57919542  0.63587177    -0.60100
C1255       C  0.87299033  0.51797764  0.88040987     0.86500
C1256       C  0.87412544  0.53395726  0.92799973    -0.53700
C1257       C  0.88737950  0.51648732  0.96409531     0.09400
C1258       C  0.89113254  0.98300233  0.96055667     0.20400
C1259       C  0.91264759  0.99719960  0.88174728    -0.54400
C1260       C  0.92712503  0.98195526  0.91976778     0.09600
C1261       C  0.82877739  0.98792348  0.90151249    -0.54000
C1262       C  0.84255767  0.97250343  0.93981691     0.10100
H1263       H  0.86729517  0.55710714  0.93299321     0.14600
H1264       H  0.90283727  0.97057466  0.99152634     0.00400
H1265       H  0.93420059  0.99888342  0.85032154     0.14900
H1266       H  0.79456637  0.98449208  0.88392900     0.14700
C1267       C  0.84425180  0.57996142  0.79011980     0.86500
C1268       C  0.87714629  0.57066029  0.74998800    -0.53700
C1269       C  0.86463429  0.58178632  0.70803170     0.09400
C1270       C  0.82142705  0.60268841  0.71028865     0.20400
C1271       C  0.84619577  0.61364296  0.79024160    -0.54400
C1272       C  0.83386766  0.62618347  0.74840817     0.09600
C1273       C  0.79318741  0.57220234  0.77370490    -0.54000
C1274       C  0.78130883  0.58376840  0.73156049     0.10100
H1275       H  0.90657355  0.55541405  0.75412878     0.14600
H1276       H  0.81165978  0.61143468  0.67578955     0.00400
H1277       H  0.85518311  0.62598815  0.82158104     0.14900
H1278       H  0.77053055  0.55666121  0.79202307     0.14700
C1279       C  0.62963759  0.98624734  0.64231178     0.86500
C1280       C  0.61955331  0.96799166  0.68595745    -0.53700
C1281       C  0.60713125  0.98423568  0.72447494     0.09400
C1282       C  0.62305866  0.52706601  0.70948817     0.20400
C1283       C  0.60994375  0.51339447  0.62800749    -0.54400
C1284       C  0.59164093  0.52828153  0.66525984     0.09600
C1285       C  0.69106365  0.52184892  0.65690718    -0.54000
C1286       C  0.67326691  0.53735874  0.69402791     0.10100
H1287       H  0.62118462  0.94422398  0.68599612     0.14600
H1288       H  0.60845693  0.53954622  0.73970989     0.00400
H1289       H  0.59159672  0.51174822  0.59458848     0.14900
H1290       H  0.72703223  0.52519740  0.64313003     0.14700
C1291       C  0.68347931  0.94897705  0.52950147     0.86500
C1292       C  0.63499697  0.94307503  0.99930632    -0.53700
C1293       C  0.64429582  0.93000057  0.95722688     0.09400
C1294       C  0.68798077  0.90891288  0.95869405     0.20400
C1295       C  0.67705140  0.91607666  0.53659969    -0.54400
C1296       C  0.67757736  0.88718516  0.99954822     0.09600
C1297       C  0.73298116  0.95216844  0.50712738    -0.54000
C1298       C  0.72967025  0.92906350  0.97660137     0.10100
H1299       H  0.60579942  0.95837928  0.00455095     0.14600
H1300       H  0.69569938  0.89817912  0.92465462     0.00400
H1301       H  0.66996509  0.90755053  0.57091371     0.14900
H1302       H  0.75956976  0.96796853  0.51980675     0.14700
In1303     In  0.55419531  0.94423489  0.84248555     1.36900
C1304       C  0.46592252  0.96653890  0.84419117     0.77600
O1305       O  0.57746271  0.98510964  0.80372210    -0.60800
O1306       O  0.59345828  0.94354017  0.77456556    -0.51700
C1307       C  0.61533346  0.93700137  0.91496890     0.70300
O1308       O  0.58099799  0.95493002  0.91562714    -0.46600
C1309       C  0.53251808  0.88902463  0.83583454     0.75000
O1310       O  0.49826783  0.97426496  0.87295918    -0.58500
O1311       O  0.54642248  0.90356007  0.80133962    -0.48500
O1312       O  0.47854431  0.94725675  0.81517305    -0.54900
C1313       C  0.59308094  0.97077791  0.76907843     0.85200
O1314       O  0.62171041  0.92510713  0.87570594    -0.56800
O1315       O  0.52422671  0.90343490  0.87269007    -0.60100
In1316     In  0.93960354  0.56245525  0.58746749     1.36900
C1317       C  0.02309494  0.53628284  0.59426165     0.77600
O1318       O  0.89882840  0.52413078  0.55368314    -0.60800
O1319       O  0.92601422  0.55863605  0.51201135    -0.51700
C1320       C  0.88907676  0.57271455  0.66468550     0.70300
O1321       O  0.92971676  0.56085266  0.66482309    -0.46600
C1322       C  0.94915056  0.61832820  0.57338251     0.75000
O1323       O  0.98584988  0.52654718  0.61407898    -0.58500
O1324       O  0.91994821  0.60235533  0.55088582    -0.48500
O1325       O  0.01744225  0.55921269  0.57106289    -0.54900
C1326       C  0.90396593  0.53455102  0.51334765     0.85200
O1327       O  0.87172166  0.57648052  0.62470181    -0.56800
O1328       O  0.97666225  0.60537127  0.60123396    -0.60100
C1329       C  0.12942823  0.98726688  0.62977050     0.86500
C1330       C  0.08340887  0.50638263  0.63539534    -0.53700
C1331       C  0.06986120  0.52219079  0.59776282     0.09400
C1332       C  0.10823991  0.52447103  0.55959628     0.20400
C1333       C  0.12721131  0.96977294  0.58323684    -0.54400
C1334       C  0.11318342  0.98603400  0.54587138     0.09600
C1335       C  0.16650260  0.52108546  0.62258339    -0.54000
C1336       C  0.15293288  0.53701151  0.58496167     0.10100
H1337       H  0.06032125  0.50301443  0.66540370     0.14600
H1338       H  0.09682905  0.53734907  0.52899270     0.00400
H1339       H  0.13488855  0.94662856  0.57967580     0.14900
H1340       H  0.19826205  0.52592250  0.64340753     0.14700
C1341       C  0.16071762  0.92780880  0.72382105     0.86500
C1342       C  0.15705900  0.89445357  0.72224050    -0.53700
C1343       C  0.16896805  0.88054540  0.76277466     0.09400
C1344       C  0.18436867  0.90297383  0.80200639     0.20400
C1345       C  0.12952706  0.93710994  0.76526676    -0.54400
C1346       C  0.14209899  0.92483759  0.80660993     0.09600
C1347       C  0.21246047  0.93439404  0.73909617    -0.54000
C1348       C  0.22519642  0.92197793  0.78048415     0.10100
H1349       H  0.14687121  0.88324170  0.69023891     0.14600
H1350       H  0.19447768  0.89279517  0.83546878     0.00400
H1351       H  0.10056551  0.95276605  0.76220744     0.14900
H1352       H  0.23497655  0.95001288  0.72080804     0.14700
C1353       C  0.36865596  0.52674633  0.86058433     0.86500
C1354       C  0.39963179  0.99431570  0.88129962    -0.53700
C1355       C  0.41755554  0.97947975  0.84375955     0.09400
C1356       C  0.38485638  0.98027481  0.80011773     0.22800
C1357       C  0.37682154  0.54196752  0.81418685    -0.54400
C1358       C  0.39166963  0.52388886  0.77909666     0.09600
C1359       C  0.31798458  0.98431493  0.85433950    -0.54000
C1360       C  0.33507654  0.96911636  0.81660700     0.10100
H1361       H  0.41856576  0.99618960  0.91436551     0.14600
H1362       H  0.39933680  0.96812064  0.76951002     0.00400
H1363       H  0.37407468  0.56554397  0.81022058     0.14900
H1364       H  0.28249826  0.98048527  0.86891099     0.14700
C1365       C  0.33249358  0.56139940  0.98194461     0.86500
C1366       C  0.33563917  0.59493363  0.97608175    -0.53700
C1367       C  0.32231805  0.60772659  0.51569125     0.09400
C1368       C  0.31323200  0.58990147  0.56060373     0.20400
C1369       C  0.35533583  0.54956642  0.52220890    -0.54400
C1370       C  0.35345030  0.56663484  0.56137457     0.09600
C1371       C  0.28207504  0.55581235  0.00101193    -0.54000
C1372       C  0.26688170  0.57214496  0.55003503     0.10100
H1373       H  0.34520084  0.60474576  0.94338409     0.14600
H1374       H  0.31114846  0.60316059  0.59314710     0.00400
H1375       H  0.38151906  0.53229100  0.51730604     0.14900
H1376       H  0.25843322  0.53904581  0.98615087     0.14700
C1377       C  0.35396803  0.54873764  0.89792501    -0.16400
C1378       C  0.34364047  0.54071052  0.94146632    -0.31600
H1379       H  0.35267431  0.57164036  0.88875057     0.12600
H1380       H  0.34390499  0.51744768  0.94917315     0.13200
C1381       C  0.26705167  0.93322270  0.80828808    -0.16400
C1382       C  0.30456983  0.94796796  0.78933816    -0.31600
H1383       H  0.26365546  0.93239833  0.84591835     0.12600
H1384       H  0.31047209  0.94694066  0.75199457     0.13200
C1385       C  0.14657639  0.94197877  0.67817748    -0.16400
C1386       C  0.14475422  0.97131316  0.67358537    -0.31600
H1387       H  0.13643810  0.92770739  0.64929716     0.12600
H1388       H  0.15262570  0.98493828  0.70407216     0.13200
C1389       C  0.18261571  0.56060290  0.56454142    -0.16400
C1390       C  0.22571959  0.56891835  0.58205672    -0.31600
H1391       H  0.17445228  0.56559692  0.52848212     0.12600
H1392       H  0.23405116  0.56665164  0.61873612     0.13200
C1393       C  0.63876875  0.96704741  0.59959553    -0.16400
C1394       C  0.67877588  0.96757549  0.57340126    -0.31600
H1395       H  0.60972212  0.95224322  0.58911574     0.12600
H1396       H  0.70873086  0.98168414  0.58302666     0.13200
C1397       C  0.70268021  0.55846703  0.72160415    -0.16400
C1398       C  0.74056716  0.57259836  0.70308556    -0.31600
H1399       H  0.69568109  0.55999849  0.75872891     0.12600
H1400       H  0.74502476  0.57300238  0.66552649     0.13200
C1401       C  0.85909704  0.53572158  0.83806806    -0.16400
C1402       C  0.85728053  0.56532593  0.83563941    -0.31600
H1403       H  0.85200808  0.52304194  0.80642821     0.12600
H1404       H  0.86624335  0.57910546  0.86543389     0.13200
C1405       C  0.81022700  0.95191311  0.96505998    -0.16400
C1406       C  0.76986584  0.93966649  0.94665782    -0.31600
H1407       H  0.81784041  0.94908470  0.00184356     0.12600
H1408       H  0.76346758  0.94028189  0.90936892     0.13200
C1409       C  0.67740267  0.78062980  0.60093146    -0.16400
C1410       C  0.65462497  0.80245544  0.57869245    -0.31600
H1411       H  0.71162691  0.77292389  0.58791485     0.12600
H1412       H  0.61957870  0.80893363  0.59182849     0.13200
C1413       C  0.71329037  0.67491209  0.69946250    -0.16400
C1414       C  0.67095124  0.68859725  0.69419717    -0.31600
H1415       H  0.71282927  0.65121645  0.69522686     0.12600
H1416       H  0.63940857  0.67468770  0.68897534     0.13200
C1417       C  0.82048585  0.72436195  0.85366369    -0.16400
C1418       C  0.82553289  0.73189780  0.80871845    -0.31600
H1419       H  0.80480761  0.70310602  0.86162122     0.12600
H1420       H  0.84258071  0.75284361  0.80118223     0.13200
C1421       C  0.82669669  0.81672515  0.95366184    -0.16400
C1422       C  0.78439526  0.83007033  0.96109028    -0.31600
H1423       H  0.85838913  0.83082727  0.95262196     0.12600
H1424       H  0.78567751  0.85387613  0.96246028     0.13200
C1425       C  0.15406351  0.78419649  0.64863782    -0.16400
C1426       C  0.14390300  0.77818525  0.69293739    -0.31600
H1427       H  0.17423474  0.80400829  0.64050993     0.12600
H1428       H  0.12289227  0.75864726  0.70079272     0.13200
C1429       C  0.22307290  0.68675612  0.56445717    -0.16400
C1430       C  0.18197270  0.69643379  0.54505044    -0.31600
H1431       H  0.22936770  0.68932448  0.60159045     0.12600
H1432       H  0.17487541  0.69152848  0.50853958     0.13200
C1433       C  0.34912511  0.70661956  0.90200171    -0.16400
C1434       C  0.34215556  0.71449294  0.94660514    -0.31600
H1435       H  0.34542711  0.68399914  0.89062116     0.12600
H1436       H  0.34391912  0.73770021  0.95575905     0.13200
C1437       C  0.29825366  0.79915626  0.82902358    -0.16400
C1438       C  0.28465278  0.80815170  0.78713146    -0.31600
H1439       H  0.27295895  0.80211403  0.85755536     0.12600
H1440       H  0.30821596  0.80332525  0.75788024     0.13200
loop_ 
_geom_bond_atom_site_label_1 
_geom_bond_atom_site_label_2 
_geom_bond_distance 
_geom_bond_site_symmetry_2 
_ccdc_geom_bond_type 
In1           O3   2.265       .  S
In1           O4   2.218       .  S
In1          O12   2.248       .  S
In1           O6   2.264       .  S
In1           O8   2.213       .  S
In1           O9   2.246       .  S
In1          O10   2.189       .  S
In1          O13   2.275       .  S
C2            O8   1.262       .  A
C2           O10   1.257       .  A
C2          C229   1.433       .  S
O3           C11   1.259       .  A
O4           C11   1.263       .  A
C5           O12   1.260       .  A
C5            O6   1.256       .  A
C5          C130   1.477       .  S
C7            O9   1.260       .  A
C7           O13   1.257       .  A
C7          C142   1.480       .  S
C11          C32   1.473       .  S
In14         O16   2.234   1_655  S
In14         O17   2.248       .  S
In14         O25   2.251       .  S
In14         O19   2.233       .  S
In14         O21   2.207       .  S
In14         O22   2.225       .  S
In14         O23   2.221       .  S
In14         O26   2.281       .  S
C15          O21   1.259       .  A
C15          O23   1.260       .  A
C15         C242   1.441       .  S
O16          C24   1.258       .  A
O17          C24   1.260   1_655  A
C18          O25   1.260   1_556  A
C18          O19   1.255   1_556  A
C18         C466   1.469       .  S
C20          O22   1.260       .  A
C20          O26   1.258       .  A
C20         C118   1.477       .  S
C24          C56   1.468       .  S
C27          C28   1.538       .  S
C27          C33   1.526       .  S
C27          C31   1.525       .  S
C27         C353   1.516       .  S
C28          H35   1.086       .  S
C28          C29   1.376       .  D
C29          C85   1.493       .  S
C29          C30   1.546       .  S
C30          C34   1.569       .  S
C30          C32   1.548       .  S
C30          H36   1.110       .  S
C31          H37   1.087       .  S
C31          C32   1.361       .  D
C33          H38   1.087       .  S
C33          C34   1.362       .  D
C34         C357   1.503       .  S
C39          C45   1.527       .  S
C39          C43   1.524       .  S
C39         C354   1.518       .  S
C39         C400   1.537       .  S
C40         C399   1.534   1_554  S
C40          H47   1.086       .  S
C40          C41   1.362       .  D
C41          C79   1.482       .  S
C41          C42   1.553       .  S
C42          C46   1.547       .  S
C42          C44   1.565       .  S
C42          H48   1.108       .  S
C43          H49   1.082       .  S
C43         C404   1.376       .  D
C44         C403   1.373   1_554  D
C44         C287   1.514       .  S
C45          H50   1.086       .  S
C45         C406   1.368       .  D
C46         C405   1.367       .  D
C46         C349   1.485       .  S
C51          C52   1.529       .  S
C51          C57   1.534       .  S
C51          C55   1.542       .  S
C51         C345   1.510       .  S
C52          H59   1.087       .  S
C52          C53   1.363       .  D
C53         C458   1.473   1_554  S
C53          C54   1.537       .  S
C54          C58   1.542       .  S
C54          C56   1.534       .  S
C54          H60   1.111       .  S
C55          H61   1.086       .  S
C55          C56   1.365       .  D
C57          H62   1.084       .  S
C57          C58   1.371       .  D
C58         C350   1.484       .  S
C63          C64   1.512       .  S
C63          C69   1.517       .  S
C63          C67   1.531       .  S
C63         C346   1.509       .  S
C64          H71   1.087       .  S
C64          C65   1.357       .  D
C65          C92   1.491       .  S
C65          C66   1.570       .  S
C66          C70   1.573       .  S
C66          C68   1.568       .  S
C66          H72   1.109       .  S
C67          H73   1.082       .  S
C67          C68   1.383       .  D
C68         C263   1.529       .  S
C69          H74   1.087       .  S
C69          C70   1.361       .  D
C70         C358   1.495       .  S
In75         O77   2.306       .  S
In75         O78   2.244       .  S
In75         O86   2.259       .  S
In75         O80   2.265       .  S
In75         O82   2.288       .  S
In75         O83   2.217       .  S
In75         O84   2.243       .  S
In75         O87   2.227       .  S
C76          O82   1.263       .  A
C76          O84   1.258       .  A
C76         C127   1.485       .  S
O77          C85   1.265       .  A
O78          C85   1.255       .  A
C79          O86   1.255       .  A
C79          O80   1.265       .  A
C81          O83   1.259       .  A
C81          O87   1.259       .  A
C81         C163   1.445       .  S
In88         O90   2.263       .  S
In88         O91   2.236       .  S
In88         O99   2.315       .  S
In88         O93   2.232       .  S
In88         O95   2.292       .  S
In88         O96   2.213       .  S
In88         O97   2.260   1_455  S
In88        O100   2.227       .  S
C89          O95   1.262   1_655  A
C89          O97   1.259       .  A
C89         C103   1.491       .  S
O90          C98   1.260       .  A
O91          C98   1.255       .  A
C92          O99   1.255       .  A
C92          O93   1.263       .  A
C94          O96   1.259       .  A
C94         O100   1.262       .  A
C94         C150   1.446       .  S
C98         C413   1.473       .  S
C101        C102   1.548       .  S
C101        C107   1.531       .  S
C101        C105   1.533       .  S
C101        C337   1.518       .  S
C102        H109   1.085       .  S
C102        C103   1.375       .  D
C103        C104   1.543       .  S
C104        C108   1.540       .  S
C104        C106   1.531       .  S
C104        H110   1.111       .  S
C105        H111   1.087       .  S
C105        C106   1.357       .  D
C106        C378   1.466       .  S
C107        H112   1.085       .  S
C107        C108   1.372       .  D
C108        C341   1.482       .  S
C113        C114   1.550       .  S
C113        C119   1.541       .  S
C113        C117   1.518       .  S
C113        C338   1.531       .  S
C114        H121   1.078       .  S
C114        C115   1.373       .  D
C115        C116   1.551       .  S
C115        C192   1.523       .  S
C116        C120   1.545       .  S
C116        C118   1.552       .  S
C116        H122   1.108       .  S
C117        H123   1.087       .  S
C117        C118   1.359       .  D
C119        H124   1.086       .  S
C119        C120   1.373       .  D
C120        C333   1.483       .  S
C125        C126   1.552       .  S
C125        C131   1.545       .  S
C125        C129   1.543       .  S
C125        C329   1.532       .  S
C126        H133   1.085       .  S
C126        C127   1.369       .  D
C127        C128   1.533       .  S
C128        C132   1.536       .  S
C128        C130   1.531       .  S
C128        H134   1.111       .  S
C129        H135   1.086       .  S
C129        C130   1.374       .  D
C131        H136   1.086       .  S
C131        C132   1.366       .  D
C132        C334   1.483       .  S
C137        C138   1.532       .  S
C137        C143   1.542       .  S
C137        C330   1.537       .  S
C137        C501   1.534   1_554  S
C138        H145   1.082       .  S
C138        C499   1.379   1_554  D
C139        C140   1.554       .  S
C139        C498   1.379       .  D
C139        C216   1.518       .  S
C140        C144   1.541       .  S
C140        C142   1.547       .  S
C140        H146   1.109       .  S
C141        C497   1.528       .  S
C141        H147   1.087       .  S
C141        C142   1.364       .  D
C143        H148   1.082       .  S
C143        C504   1.374   1_554  D
C144        C503   1.372       .  D
C144        C342   1.482       .  S
In149       O151   2.261   1_455  S
In149       O152   2.222       .  S
In149       O160   2.291       .  S
In149       O154   2.244       .  S
In149       O156   2.220       .  S
In149       O157   2.257       .  S
In149       O158   2.227       .  S
In149       O161   2.282       .  S
C150        O156   1.259       .  A
C150        O158   1.257       .  A
O151        C159   1.260       .  A
O152        C159   1.261   1_455  A
C153        O160   1.263       .  A
C153        O154   1.257       .  A
C153        C614   1.487       .  S
C155        O157   1.258       .  A
C155        O161   1.259       .  A
C155        C266   1.487       .  S
C159        C180   1.471       .  S
In162       O164   2.245       .  S
In162       O165   2.232       .  S
In162       O173   2.267       .  S
In162       O167   2.233       .  S
In162       O169   2.216       .  S
In162       O170   2.231       .  S
In162       O171   2.229       .  S
In162       O174   2.273       .  S
C163        O169   1.258       .  A
C163        O171   1.259       .  A
O164        C172   1.258       .  A
O165        C172   1.260       .  A
C166        O173   1.260       .  A
C166        O167   1.256       .  A
C166        C278   1.474       .  S
C168        O170   1.259       .  A
C168        O174   1.259       .  A
C168        C290   1.476       .  S
C172        C204   1.467       .  S
C175        C176   1.549       .  S
C175        C321   1.524       .  S
C175        C901   1.539   1_545  S
C175        C899   1.535       .  S
C176        H183   1.084       .  S
C176        C177   1.374       .  D
C177        C606   1.481       .  S
C177        C898   1.534   1_545  S
C178        C182   1.544       .  S
C178        C180   1.542       .  S
C178        C897   1.534       .  S
C178        H184   1.111       .  S
C179        C895   1.527       .  S
C179        H185   1.087       .  S
C179        C180   1.362       .  D
C181        C895   1.549       .  S
C181        H186   1.082       .  S
C181        C182   1.372       .  D
C182        C325   1.490       .  S
C187        C188   1.535       .  S
C187        C193   1.533       .  S
C187        C191   1.532       .  S
C187        C322   1.525       .  S
C188        H195   1.086       .  S
C188        C189   1.365       .  D
C189        C240   1.483       .  S
C189        C190   1.546       .  S
C190        C194   1.542       .  S
C190        C192   1.560       .  S
C190        H196   1.108       .  S
C191        H197   1.082       .  S
C191        C192   1.378       .  D
C193        H198   1.085       .  S
C193        C194   1.370       .  D
C194        C318   1.485       .  S
C199        C200   1.532       .  S
C199        C313   1.512       .  S
C199        C925   1.545       .  S
C199        C923   1.533       .  S
C200        H207   1.087       .  S
C200        C201   1.365       .  D
C201        C233   1.470       .  S
C201        C922   1.533       .  S
C202        C206   1.539       .  S
C202        C204   1.538       .  S
C202        C921   1.532   1_545  S
C202        H208   1.111       .  S
C203        C919   1.529   1_545  S
C203        H209   1.087       .  S
C203        C204   1.362       .  D
C205        C919   1.534   1_545  S
C205        H210   1.085       .  S
C205        C206   1.371       .  D
C206        C317   1.485       .  S
C211        C217   1.520   1_554  S
C211        C215   1.525       .  S
C211        C314   1.508       .  S
C211        C572   1.530   1_554  S
C212        C571   1.530       .  S
C212        H219   1.087       .  S
C212        C213   1.365       .  D
C213        C227   1.482       .  S
C213        C214   1.549       .  S
C214        C218   1.553       .  S
C214        C216   1.566       .  S
C214        H220   1.109       .  S
C215        H221   1.081       .  S
C215        C576   1.376   1_554  D
C216        C575   1.372       .  D
C217        H222   1.087   1_556  S
C217        C578   1.365       .  D
C218        C577   1.367       .  D
C218        C326   1.494       .  S
In223       O225   2.255       .  S
In223       O226   2.229       .  S
In223       O234   2.279       .  S
In223       O228   2.244       .  S
In223       O230   2.219       .  S
In223       O231   2.215       .  S
In223       O232   2.259       .  S
In223       O235   2.201       .  S
C224        O230   1.259       .  A
C224        O232   1.259       .  A
C224        C275   1.468       .  S
O225        C233   1.260       .  A
O226        C233   1.255       .  A
C227        O234   1.258       .  A
C227        O228   1.259       .  A
C229        O231   1.257       .  A
C229        O235   1.258       .  A
In236       O238   2.279       .  S
In236       O239   2.235       .  S
In236       O247   2.273       .  S
In236       O241   2.256       .  S
In236       O243   2.229       .  S
In236       O244   2.211       .  S
In236       O245   2.256   1_655  S
In236       O248   2.225       .  S
C237        O243   1.261   1_455  A
C237        O245   1.259       .  A
C237        C251   1.470       .  S
O238        C246   1.262       .  A
O239        C246   1.256       .  A
C240        O247   1.258       .  A
C240        O241   1.260       .  A
C242        O244   1.258       .  A
C242        O248   1.258       .  A
C246        C537   1.481   1_554  S
C249        C253   1.552       .  S
C249        C306   1.522       .  S
C249        C970   1.529       .  S
C249        C975   1.537       .  S
C250        C969   1.529   1_545  S
C250        H257   1.087       .  S
C250        C251   1.363       .  D
C251        C252   1.540       .  S
C252        C256   1.539       .  S
C252        C974   1.538   1_545  S
C252        H258   1.111       .  S
C253        H259   1.084       .  S
C253        C254   1.373       .  D
C254        C513   1.480       .  S
C254        C972   1.532       .  S
C255        C969   1.528   1_545  S
C255        H260   1.085       .  S
C255        C256   1.368       .  D
C256        C309   1.479       .  S
C261        C262   1.523       .  S
C261        C267   1.527       .  S
C261        C265   1.534       .  S
C261        C305   1.521       .  S
C262        H269   1.081       .  S
C262        C263   1.374       .  D
C263        C264   1.569       .  S
C264        C268   1.548       .  S
C264        C266   1.552       .  S
C264        H270   1.110       .  S
C265        H271   1.086       .  S
C265        C266   1.368       .  D
C267        H272   1.085       .  S
C267        C268   1.371       .  D
C268        C301   1.489       .  S
C273        C277   1.534       .  S
C273        C297   1.518       .  S
C273        C994   1.526       .  S
C273        C999   1.552   1_545  S
C274        C993   1.527       .  S
C274        H281   1.087       .  S
C274        C275   1.360       .  D
C275        C276   1.536       .  S
C276        C280   1.538       .  S
C276        C998   1.534       .  S
C276        H282   1.111       .  S
C277        H283   1.087       .  S
C277        C278   1.365       .  D
C278        C996   1.535   1_545  S
C279        C993   1.548       .  S
C279        H284   1.083       .  S
C279        C280   1.376       .  D
C280        C302   1.483       .  S
C285        C286   1.531       .  S
C285        C291   1.519       .  S
C285        C298   1.517       .  S
C285        C649   1.533       .  S
C286        H293   1.081       .  S
C286        C647   1.381       .  D
C287        C288   1.555       .  S
C287        C646   1.378   1_554  D
C288        C292   1.541       .  S
C288        C290   1.547       .  S
C288        H294   1.109       .  S
C289        C645   1.525   1_554  S
C289        H295   1.087       .  S
C289        C290   1.363       .  D
C291        H296   1.086       .  S
C291        C652   1.364       .  D
C292        C651   1.367   1_554  D
C292        C310   1.481       .  S
C297        H299   1.088       .  S
C297        C298   1.337       .  D
C298        H300   1.083       .  S
C301        H303   1.085       .  S
C301        C302   1.346       .  D
C302        H304   1.086       .  S
C305        H307   1.083       .  S
C305        C306   1.347       .  D
C306        H308   1.087       .  S
C309        H311   1.085       .  S
C309        C310   1.347       .  D
C310        H312   1.085       .  S
C313        H315   1.088       .  S
C313        C314   1.339       .  D
C314        H316   1.082       .  S
C317        H319   1.086       .  S
C317        C318   1.345       .  D
C318        H320   1.086       .  S
C321        H323   1.088       .  S
C321        C322   1.350       .  D
C322        H324   1.084       .  S
C325        H327   1.086       .  S
C325        C326   1.353       .  D
C326        H328   1.085       .  S
C329        H331   1.083       .  S
C329        C330   1.354       .  D
C330        H332   1.087       .  S
C333        H335   1.087       .  S
C333        C334   1.347       .  D
C334        H336   1.086       .  S
C337        H339   1.082       .  S
C337        C338   1.344       .  D
C338        H340   1.086       .  S
C341        H343   1.086       .  S
C341        C342   1.344       .  D
C342        H344   1.086       .  S
C345        H347   1.087       .  S
C345        C346   1.337       .  D
C346        H348   1.087       .  S
C349        H351   1.084       .  S
C349        C350   1.348       .  D
C350        H352   1.087       .  S
C353        H355   1.086       .  S
C353        C354   1.343       .  D
C354        H356   1.087       .  S
C357        H359   1.088       .  S
C357        C358   1.338       .  D
C358        H360   1.086       .  S
In361       O363   2.276       .  S
In361       O364   2.206       .  S
In361       O372   2.256       .  S
In361       O366   2.258       .  S
In361       O368   2.229       .  S
In361       O369   2.249       .  S
In361       O370   2.217       .  S
In361       O373   2.278       .  S
C362        O368   1.261       .  A
C362        O370   1.258       .  A
C362        C589   1.446       .  S
O363        C371   1.261       .  A
O364        C371   1.259       .  A
C365        O372   1.258       .  A
C365        O366   1.258       .  A
C365        C490   1.477       .  S
C367        O369   1.257       .  A
C367        O373   1.259       .  A
C367        C502   1.481       .  S
C371        C392   1.472       .  S
In374       O376   2.240   1_655  S
In374       O377   2.225       .  S
In374       O385   2.256       .  S
In374       O379   2.213       .  S
In374       O381   2.205       .  S
In374       O382   2.222       .  S
In374       O383   2.209       .  S
In374       O386   2.271       .  S
C375        O381   1.260       .  A
C375        O383   1.259       .  A
C375        C602   1.436       .  S
O376        C384   1.259       .  A
O377        C384   1.261   1_655  A
C378        O385   1.259       .  A
C378        O379   1.257       .  A
C380        O382   1.261       .  A
C380        O386   1.256       .  A
C380        C478   1.474       .  S
C384        C416   1.466       .  S
C387        C388   1.530       .  S
C387        C393   1.526       .  S
C387        C391   1.524       .  S
C387        C713   1.508       .  S
C388        H395   1.087       .  S
C388        C389   1.371       .  D
C389        C445   1.488       .  S
C389        C390   1.551       .  S
C390        C394   1.564       .  S
C390        C392   1.545       .  S
C390        H396   1.109       .  S
C391        H397   1.087       .  S
C391        C392   1.362       .  D
C393        H398   1.086       .  S
C393        C394   1.359       .  D
C394        C717   1.490       .  S
C399        C405   1.521   1_556  S
C399        C403   1.518       .  S
C399        C714   1.505       .  S
C400        H407   1.086       .  S
C400        C401   1.363       .  D
C401        C439   1.486       .  S
C401        C402   1.552       .  S
C402        C406   1.547       .  S
C402        C404   1.566       .  S
C402        H408   1.108       .  S
C403        H409   1.081       .  S
C404        C647   1.520       .  S
C405        H410   1.086   1_554  S
C406        C709   1.489       .  S
C411        C412   1.533       .  S
C411        C417   1.540       .  S
C411        C415   1.530       .  S
C411        C705   1.506       .  S
C412        H419   1.087       .  S
C412        C413   1.366       .  D
C413        C414   1.535       .  S
C414        C418   1.542       .  S
C414        C416   1.536       .  S
C414        H420   1.111       .  S
C415        H421   1.087       .  S
C415        C416   1.360       .  D
C417        H422   1.084       .  S
C417        C418   1.373       .  D
C418        C710   1.487       .  S
C423        C424   1.527       .  S
C423        C429   1.516       .  S
C423        C427   1.527       .  S
C423        C706   1.514       .  S
C424        H431   1.086       .  S
C424        C425   1.359       .  D
C425        C452   1.487       .  S
C425        C426   1.563       .  S
C426        C430   1.561       .  S
C426        C428   1.555       .  S
C426        H432   1.109       .  S
C427        H433   1.080       .  S
C427        C428   1.384       .  D
C428        C623   1.522       .  S
C429        H434   1.088       .  S
C429        C430   1.358       .  D
C430        C718   1.476       .  S
In435       O437   2.300       .  S
In435       O438   2.231       .  S
In435       O446   2.275       .  S
In435       O440   2.265       .  S
In435       O442   2.269       .  S
In435       O443   2.225       .  S
In435       O444   2.250       .  S
In435       O447   2.233       .  S
C436        O442   1.263       .  A
C436        O444   1.259       .  A
C436        C487   1.482       .  S
O437        C445   1.263       .  A
O438        C445   1.256       .  A
C439        O446   1.256       .  A
C439        O440   1.262       .  A
C441        O443   1.259       .  A
C441        O447   1.260       .  A
C441        C523   1.449       .  S
In448       O450   2.273       .  S
In448       O451   2.218       .  S
In448       O459   2.287       .  S
In448       O453   2.249       .  S
In448       O455   2.273       .  S
In448       O456   2.212       .  S
In448       O457   2.260   1_455  S
In448       O460   2.219       .  S
C449        O455   1.264   1_655  A
C449        O457   1.259       .  A
C449        C463   1.488       .  S
O450        C458   1.261       .  A
O451        C458   1.256       .  A
C452        O459   1.255       .  A
C452        O453   1.265       .  A
C454        O456   1.260       .  A
C454        O460   1.261       .  A
C454        C510   1.442       .  S
C461        C462   1.540       .  S
C461        C467   1.542       .  S
C461        C465   1.537       .  S
C461        C697   1.522       .  S
C462        H469   1.086       .  S
C462        C463   1.367       .  D
C463        C464   1.545       .  S
C464        C468   1.540       .  S
C464        C466   1.530       .  S
C464        H470   1.111       .  S
C465        H471   1.087       .  S
C465        C466   1.365       .  D
C467        H472   1.082       .  S
C467        C468   1.373       .  D
C468        C701   1.489       .  S
C473        C474   1.539       .  S
C473        C479   1.540       .  S
C473        C477   1.519       .  S
C473        C698   1.522       .  S
C474        H481   1.083       .  S
C474        C475   1.377       .  D
C475        C476   1.554       .  S
C475        C552   1.525       .  S
C476        C480   1.549       .  S
C476        C478   1.551       .  S
C476        H482   1.108       .  S
C477        H483   1.087       .  S
C477        C478   1.357       .  D
C479        H484   1.086       .  S
C479        C480   1.371       .  D
C480        C693   1.484       .  S
C485        C486   1.546       .  S
C485        C491   1.543       .  S
C485        C489   1.534       .  S
C485        C689   1.522       .  S
C486        H493   1.087       .  S
C486        C487   1.367       .  D
C487        C488   1.537       .  S
C488        C492   1.542       .  S
C488        C490   1.541       .  S
C488        H494   1.111       .  S
C489        H495   1.086       .  S
C489        C490   1.367       .  D
C491        H496   1.086       .  S
C491        C492   1.368       .  D
C492        C694   1.485       .  S
C497        C498   1.529       .  S
C497        C503   1.537       .  S
C497        C690   1.527       .  S
C498        H505   1.080       .  S
C499        C500   1.554       .  S
C499        C576   1.521       .  S
C500        C504   1.543       .  S
C500        C502   1.542       .  S
C500        H506   1.109       .  S
C501        H507   1.086       .  S
C501        C502   1.367       .  D
C503        H508   1.081       .  S
C504        C702   1.490       .  S
In509       O511   2.248   1_455  S
In509       O512   2.252       .  S
In509       O520   2.276       .  S
In509       O514   2.247       .  S
In509       O516   2.208       .  S
In509       O517   2.240       .  S
In509       O518   2.220       .  S
In509       O521   2.290       .  S
C510        O516   1.258       .  A
C510        O518   1.260       .  A
O511        C519   1.261       .  A
O512        C519   1.260   1_455  A
C513        O520   1.263   1_554  A
C513        O514   1.254   1_554  A
C515        O517   1.258       .  A
C515        O521   1.257       .  A
C515        C626   1.483       .  S
C519        C540   1.474       .  S
In522       O524   2.256       .  S
In522       O525   2.224       .  S
In522       O533   2.274       .  S
In522       O527   2.241       .  S
In522       O529   2.225       .  S
In522       O530   2.256       .  S
In522       O531   2.232       .  S
In522       O534   2.265       .  S
C523        O529   1.259       .  A
C523        O531   1.258       .  A
O524        C532   1.260       .  A
O525        C532   1.260       .  A
C526        O533   1.261       .  A
C526        O527   1.258       .  A
C526        C638   1.481       .  S
C528        O530   1.260       .  A
C528        O534   1.258       .  A
C528        C650   1.481       .  S
C532        C564   1.470       .  S
C535        C536   1.544       .  S
C535       C1261   1.536   1_545  S
C535       C1259   1.533   1_545  S
C535        C681   1.524       .  S
C536        H543   1.083       .  S
C536        C537   1.369       .  D
C537       C1258   1.539   1_545  S
C538       C1257   1.533       .  S
C538        C542   1.535       .  S
C538        C540   1.532       .  S
C538        H544   1.111       .  S
C539       C1255   1.539       .  S
C539        H545   1.086       .  S
C539        C540   1.367       .  D
C541       C1255   1.539       .  S
C541        H546   1.085       .  S
C541        C542   1.370       .  D
C542        C685   1.482       .  S
C547        C548   1.533       .  S
C547        C553   1.531       .  S
C547        C551   1.531       .  S
C547        C682   1.520       .  S
C548        H555   1.086       .  S
C548        C549   1.365       .  D
C549        C600   1.487       .  S
C549        C550   1.550       .  S
C550        C554   1.543       .  S
C550        C552   1.566       .  S
C550        H556   1.108       .  S
C551        H557   1.083       .  S
C551        C552   1.375       .  D
C553        H558   1.086       .  S
C553        C554   1.370       .  D
C554        C678   1.485       .  S
C559        C560   1.539       .  S
C559       C1285   1.530       .  S
C559       C1283   1.531       .  S
C559        C673   1.509       .  S
C560        H567   1.086       .  S
C560        C561   1.370       .  D
C561        C593   1.477       .  S
C561       C1282   1.535       .  S
C562       C1281   1.534   1_545  S
C562        C566   1.536       .  S
C562        C564   1.541       .  S
C562        H568   1.111       .  S
C563       C1279   1.526   1_545  S
C563        H569   1.087       .  S
C563        C564   1.361       .  D
C565       C1279   1.545   1_545  S
C565        H570   1.082       .  S
C565        C566   1.372       .  D
C566        C677   1.482       .  S
C571        C577   1.533       .  S
C571        C575   1.520       .  S
C571        C674   1.518       .  S
C572        H579   1.087       .  S
C572        C573   1.363       .  D
C573        C587   1.485       .  S
C573        C574   1.554       .  S
C574        C578   1.545       .  S
C574        C576   1.569       .  S
C574        H580   1.109       .  S
C575        H581   1.080       .  S
C577        H582   1.081       .  S
C578        C686   1.482       .  S
In583       O585   2.276       .  S
In583       O586   2.233       .  S
In583       O594   2.279       .  S
In583       O588   2.261       .  S
In583       O590   2.261       .  S
In583       O591   2.220       .  S
In583       O592   2.254       .  S
In583       O595   2.220       .  S
C584        O590   1.261       .  A
C584        O592   1.259       .  A
C584        C635   1.480       .  S
O585        C593   1.263       .  A
O586        C593   1.254       .  A
C587        O594   1.257       .  A
C587        O588   1.261       .  A
C589        O591   1.258       .  A
C589        O595   1.260       .  A
In596       O598   2.268       .  S
In596       O599   2.246       .  S
In596       O607   2.289       .  S
In596       O601   2.258       .  S
In596       O603   2.241       .  S
In596       O604   2.206       .  S
In596       O605   2.243   1_655  S
In596       O608   2.219       .  S
C597        O603   1.263   1_455  A
C597        O605   1.261       .  A
C597        C611   1.471       .  S
O598        C606   1.263       .  A
O599        C606   1.255       .  A
C600        O607   1.259       .  A
C600        O601   1.257       .  A
C602        O604   1.255       .  A
C602        O608   1.258       .  A
C609       C1330   1.531       .  S
C609       C1335   1.527       .  S
C609        C613   1.547       .  S
C609        C666   1.508       .  S
C610       C1329   1.534   1_545  S
C610        H617   1.086   1_545  S
C610        C611   1.365       .  D
C611        C612   1.537       .  S
C612        C616   1.536       .  S
C612       C1334   1.537   1_545  S
C612        H618   1.111       .  S
C613        H619   1.083       .  S
C613        C614   1.369       .  D
C614       C1332   1.540       .  S
C615       C1329   1.535   1_545  S
C615        H620   1.085       .  S
C615        C616   1.369       .  D
C616        C669   1.480       .  S
C621        C622   1.513       .  S
C621        C627   1.528       .  S
C621        C625   1.527       .  S
C621        C665   1.505       .  S
C622        H629   1.079       .  S
C622        C623   1.368       .  D
C623        C624   1.574       .  S
C624        C628   1.556       .  S
C624        C626   1.554       .  S
C624        H630   1.109       .  S
C625        H631   1.087       .  S
C625        C626   1.363       .  D
C627        H632   1.086       .  S
C627        C628   1.370       .  D
C628        C661   1.495       .  S
C633       C1354   1.531   1_545  S
C633       C1359   1.534   1_545  S
C633        C637   1.535       .  S
C633        C657   1.509       .  S
C634       C1353   1.540       .  S
C634        H641   1.086       .  S
C634        C635   1.369       .  D
C635        C636   1.541       .  S
C636        C640   1.544       .  S
C636       C1358   1.532       .  S
C636        H642   1.111       .  S
C637        H643   1.086       .  S
C637        C638   1.368       .  D
C638       C1356   1.543   1_545  S
C639       C1353   1.541       .  S
C639        H644   1.085       .  S
C639        C640   1.373       .  D
C640        C662   1.490       .  S
C645        C646   1.527       .  S
C645        C651   1.535       .  S
C645        C658   1.521       .  S
C646        H653   1.081       .  S
C647        C648   1.560       .  S
C648        C652   1.543       .  S
C648        C650   1.549       .  S
C648        H654   1.108       .  S
C649        H655   1.086       .  S
C649        C650   1.366       .  D
C651        H656   1.079       .  S
C652        C670   1.481       .  S
C657        H659   1.079       .  S
C657        C658   1.348       .  D
C658        H660   1.087       .  S
C661        H663   1.085       .  S
C661        C662   1.351       .  D
C662        H664   1.086       .  S
C665        H667   1.081       .  S
C665        C666   1.338       .  D
C666        H668   1.088       .  S
C669        H671   1.087       .  S
C669        C670   1.347       .  D
C670        H672   1.085       .  S
C673        H675   1.080       .  S
C673        C674   1.346       .  D
C674        H676   1.088       .  S
C677        H679   1.086       .  S
C677        C678   1.344       .  D
C678        H680   1.086       .  S
C681        H683   1.087       .  S
C681        C682   1.350       .  D
C682        H684   1.082       .  S
C685        H687   1.087       .  S
C685        C686   1.346       .  D
C686        H688   1.084       .  S
C689        H691   1.083       .  S
C689        C690   1.351       .  D
C690        H692   1.088       .  S
C693        H695   1.086       .  S
C693        C694   1.349       .  D
C694        H696   1.086       .  S
C697        H699   1.088       .  S
C697        C698   1.354       .  D
C698        H700   1.083       .  S
C701        H703   1.086       .  S
C701        C702   1.346       .  D
C702        H704   1.086       .  S
C705        H707   1.086       .  S
C705        C706   1.341       .  D
C706        H708   1.087       .  S
C709        H711   1.085       .  S
C709        C710   1.348       .  D
C710        H712   1.086       .  S
C713        H715   1.087       .  S
C713        C714   1.339       .  D
C714        H716   1.086       .  S
C717        H719   1.089       .  S
C717        C718   1.333       .  D
C718        H720   1.085       .  S
In721       O723   2.276       .  S
In721       O724   2.212       .  S
In721       O732   2.260       .  S
In721       O726   2.272       .  S
In721       O728   2.220       .  S
In721       O729   2.250       .  S
In721       O730   2.218       .  S
In721       O733   2.274       .  S
C722        O728   1.261       .  A
C722        O730   1.258       .  A
C722        C949   1.443       .  S
O723        C731   1.260       .  A
O724        C731   1.259       .  A
C725        O732   1.260       .  A
C725        O726   1.258       .  A
C725        C850   1.484       .  S
C727        O729   1.258       .  A
C727        O733   1.260       .  A
C727        C862   1.481       .  S
C731        C752   1.473       .  S
In734       O736   2.254   1_655  S
In734       O737   2.217       .  S
In734       O745   2.254       .  S
In734       O739   2.231       .  S
In734       O741   2.219       .  S
In734       O742   2.237       .  S
In734       O743   2.196       .  S
In734       O746   2.258       .  S
C735        O741   1.262       .  A
C735        O743   1.257       .  A
C735        C962   1.438       .  S
O736        C744   1.260       .  A
O737        C744   1.262   1_655  A
C738        O745   1.260       .  A
C738        O739   1.257       .  A
C738       C1186   1.470   1_554  S
C740        O742   1.263       .  A
C740        O746   1.257       .  A
C740        C838   1.475       .  S
C744        C776   1.470       .  S
C747        C748   1.524       .  S
C747        C753   1.525       .  S
C747        C751   1.525       .  S
C747       C1073   1.503       .  S
C748        H755   1.087       .  S
C748        C749   1.369       .  D
C749        C805   1.480       .  S
C749        C750   1.549       .  S
C750        C754   1.567       .  S
C750        C752   1.545       .  S
C750        H756   1.109       .  S
C751        H757   1.087       .  S
C751        C752   1.362       .  D
C753        H758   1.087       .  S
C753        C754   1.363       .  D
C754       C1077   1.497       .  S
C759       C1120   1.535       .  S
C759        C765   1.525       .  S
C759        C763   1.527       .  S
C759       C1074   1.510       .  S
C760       C1119   1.519   1_554  S
C760        H767   1.088       .  S
C760        C761   1.354       .  D
C761        C799   1.477       .  S
C761        C762   1.554       .  S
C762        C766   1.549       .  S
C762        C764   1.564       .  S
C762        H768   1.108       .  S
C763        H769   1.083       .  S
C763       C1124   1.375       .  D
C764       C1123   1.377   1_554  D
C764       C1007   1.520       .  S
C765        H770   1.086       .  S
C765       C1126   1.367       .  D
C766       C1125   1.367       .  D
C766       C1069   1.488       .  S
C771        C772   1.533       .  S
C771        C777   1.537       .  S
C771        C775   1.527       .  S
C771       C1065   1.508       .  S
C772        H779   1.086       .  S
C772        C773   1.367       .  D
C773       C1178   1.473   1_554  S
C773        C774   1.536       .  S
C774        C778   1.548       .  S
C774        C776   1.541       .  S
C774        H780   1.111       .  S
C775        H781   1.087       .  S
C775        C776   1.360       .  D
C777        H782   1.084       .  S
C777        C778   1.371       .  D
C778       C1070   1.488       .  S
C783        C784   1.527       .  S
C783        C789   1.516       .  S
C783        C787   1.529       .  S
C783       C1066   1.513       .  S
C784        H791   1.086       .  S
C784        C785   1.359       .  D
C785        C812   1.487       .  S
C785        C786   1.563       .  S
C786        C790   1.565       .  S
C786        C788   1.559       .  S
C786        H792   1.109       .  S
C787        H793   1.080       .  S
C787        C788   1.385       .  D
C788        C983   1.526       .  S
C789        H794   1.088       .  S
C789        C790   1.357       .  D
C790       C1078   1.484       .  S
In795       O797   2.292       .  S
In795       O798   2.216       .  S
In795       O806   2.270       .  S
In795       O800   2.245       .  S
In795       O802   2.270       .  S
In795       O803   2.215       .  S
In795       O804   2.248       .  S
In795       O807   2.218       .  S
C796        O802   1.263       .  A
C796        O804   1.260       .  A
C796        C847   1.483       .  S
O797        C805   1.262       .  A
O798        C805   1.255       .  A
C799        O806   1.253       .  A
C799        O800   1.265       .  A
C801        O803   1.261       .  A
C801        O807   1.260       .  A
C801        C883   1.443       .  S
In808       O810   2.272       .  S
In808       O811   2.202       .  S
In808       O819   2.282       .  S
In808       O813   2.262       .  S
In808       O815   2.273       .  S
In808       O816   2.202       .  S
In808       O817   2.250   1_455  S
In808       O820   2.224       .  S
C809        O815   1.266   1_655  A
C809        O817   1.258       .  A
C809        C823   1.485       .  S
O810        C818   1.262       .  A
O811        C818   1.256       .  A
C812        O819   1.254       .  A
C812        O813   1.266       .  A
C814        O816   1.260       .  A
C814        O820   1.262       .  A
C814        C870   1.442       .  S
C818       C1133   1.469       .  S
C821        C822   1.534       .  S
C821        C827   1.531       .  S
C821        C825   1.552       .  S
C821       C1057   1.523       .  S
C822        H829   1.086       .  S
C822        C823   1.364       .  D
C823        C824   1.549       .  S
C824        C828   1.541       .  S
C824        C826   1.526       .  S
C824        H830   1.111       .  S
C825        H831   1.081       .  S
C825        C826   1.365       .  D
C826       C1098   1.469       .  S
C827        H832   1.086       .  S
C827        C828   1.371       .  D
C828       C1061   1.489       .  S
C833        C834   1.537       .  S
C833        C839   1.537       .  S
C833        C837   1.525       .  S
C833       C1058   1.514       .  S
C834        H841   1.082       .  S
C834        C835   1.369       .  D
C835        C836   1.553       .  S
C835        C912   1.515       .  S
C836        C840   1.545       .  S
C836        C838   1.551       .  S
C836        H842   1.108       .  S
C837        H843   1.087       .  S
C837        C838   1.360       .  D
C839        H844   1.087       .  S
C839        C840   1.370       .  D
C840       C1053   1.480       .  S
C845        C846   1.552       .  S
C845        C851   1.543       .  S
C845        C849   1.543       .  S
C845       C1049   1.539       .  S
C846        H853   1.086       .  S
C846        C847   1.368       .  D
C847        C848   1.533       .  S
C848        C852   1.540       .  S
C848        C850   1.537       .  S
C848        H854   1.111       .  S
C849        H855   1.086       .  S
C849        C850   1.371       .  D
C851        H856   1.087       .  S
C851        C852   1.370       .  D
C852       C1054   1.485       .  S
C857        C858   1.535       .  S
C857        C863   1.551       .  S
C857       C1221   1.526   1_554  S
C857       C1050   1.534       .  S
C858        H865   1.080       .  S
C858       C1219   1.376   1_554  D
C859        C860   1.551       .  S
C859       C1218   1.376       .  D
C859        C936   1.515       .  S
C860        C864   1.536       .  S
C860        C862   1.541       .  S
C860        H866   1.108       .  S
C861       C1217   1.535       .  S
C861        H867   1.087       .  S
C861        C862   1.365       .  D
C863        H868   1.086       .  S
C863       C1224   1.382   1_554  D
C864       C1223   1.376       .  D
C864       C1062   1.487       .  S
In869       O871   2.246   1_455  S
In869       O872   2.246       .  S
In869       O880   2.287       .  S
In869       O874   2.240       .  S
In869       O876   2.201       .  S
In869       O877   2.260       .  S
In869       O878   2.230       .  S
In869       O881   2.295       .  S
C870        O876   1.257       .  A
C870        O878   1.261       .  A
O871        C879   1.260       .  A
O872        C879   1.261   1_455  A
C873        O880   1.264       .  A
C873        O874   1.254       .  A
C873       C1334   1.484       .  S
C875        O877   1.258       .  A
C875        O881   1.258       .  A
C875        C986   1.490       .  S
C879        C900   1.472       .  S
In882       O884   2.229       .  S
In882       O885   2.224       .  S
In882       O893   2.261       .  S
In882       O887   2.216       .  S
In882       O889   2.217       .  S
In882       O890   2.216       .  S
In882       O891   2.224       .  S
In882       O894   2.271       .  S
C883        O889   1.257       .  A
C883        O891   1.258       .  A
O884        C892   1.260       .  A
O885        C892   1.259       .  A
C886        O893   1.260       .  A
C886        O887   1.256       .  A
C886        C998   1.468       .  S
C888        O890   1.256       .  A
C888        O894   1.258       .  A
C888       C1010   1.469       .  S
C892        C924   1.460       .  S
C895        C896   1.529       .  S
C895       C1041   1.516       .  S
C896        H903   1.087       .  S
C896        C897   1.364       .  D
C897       C1326   1.468       .  S
C898        C902   1.532       .  S
C898        C900   1.534       .  S
C898        H904   1.111       .  S
C899        H905   1.087       .  S
C899        C900   1.363   1_545  D
C901        H906   1.085       .  S
C901        C902   1.370       .  D
C902       C1045   1.480       .  S
C907        C908   1.531       .  S
C907        C913   1.521       .  S
C907        C911   1.531       .  S
C907       C1042   1.512       .  S
C908        H915   1.086       .  S
C908        C909   1.363       .  D
C909        C960   1.474       .  S
C909        C910   1.546       .  S
C910        C914   1.536       .  S
C910        C912   1.558       .  S
C910        H916   1.108       .  S
C911        H917   1.082       .  S
C911        C912   1.381       .  D
C913        H918   1.086       .  S
C913        C914   1.364       .  D
C914       C1038   1.477       .  S
C919        C920   1.548       .  S
C919       C1033   1.522       .  S
C920        H927   1.083       .  S
C920        C921   1.369       .  D
C921        C953   1.478       .  S
C922        C926   1.532       .  S
C922        C924   1.527       .  S
C922        H928   1.111       .  S
C923        H929   1.087       .  S
C923        C924   1.363       .  D
C925        H930   1.080       .  S
C925        C926   1.370       .  D
C926       C1037   1.477       .  S
C931       C1292   1.532   1_554  S
C931        C937   1.526       .  S
C931        C935   1.522       .  S
C931       C1034   1.516       .  S
C932       C1291   1.534       .  S
C932        H939   1.087       .  S
C932        C933   1.366       .  D
C933        C947   1.481       .  S
C933        C934   1.546       .  S
C934        C938   1.539       .  S
C934        C936   1.562       .  S
C934        H940   1.108       .  S
C935        H941   1.080       .  S
C935       C1296   1.371   1_554  D
C936       C1295   1.375       .  D
C937        H942   1.086       .  S
C937       C1298   1.370   1_554  D
C938       C1297   1.367       .  D
C938       C1046   1.480       .  S
In943       O945   2.280       .  S
In943       O946   2.231       .  S
In943       O954   2.268       .  S
In943       O948   2.261       .  S
In943       O950   2.224       .  S
In943       O951   2.211       .  S
In943       O952   2.247       .  S
In943       O955   2.224       .  S
C944        O950   1.261       .  A
C944        O952   1.259       .  A
C944        C995   1.466       .  S
O945        C953   1.262       .  A
O946        C953   1.254       .  A
C947        O954   1.257       .  A
C947        O948   1.259       .  A
C949        O951   1.257       .  A
C949        O955   1.260       .  A
In956       O958   2.266       .  S
In956       O959   2.220       .  S
In956       O967   2.260       .  S
In956       O961   2.250       .  S
In956       O963   2.240       .  S
In956       O964   2.214       .  S
In956       O965   2.239   1_655  S
In956       O968   2.207       .  S
C957        O963   1.261   1_455  A
C957        O965   1.258       .  A
C957        C971   1.465       .  S
O958        C966   1.262       .  A
O959        C966   1.253       .  A
C960        O967   1.256       .  A
C960        O961   1.258       .  A
C962        O964   1.258       .  A
C962        O968   1.261       .  A
C966       C1257   1.471   1_554  S
C969        C973   1.551       .  S
C969       C1026   1.522       .  S
C970        H977   1.087       .  S
C970        C971   1.361       .  D
C971        C972   1.536       .  S
C972        C976   1.534       .  S
C972        H978   1.111       .  S
C973        H979   1.082       .  S
C973        C974   1.370       .  D
C974       C1233   1.484   1_554  S
C975        H980   1.085       .  S
C975        C976   1.370       .  D
C976       C1029   1.481       .  S
C981        C982   1.518       .  S
C981        C987   1.531       .  S
C981        C985   1.531       .  S
C981       C1025   1.517       .  S
C982        H989   1.079       .  S
C982        C983   1.368       .  D
C983        C984   1.572       .  S
C984        C988   1.552       .  S
C984        C986   1.556       .  S
C984        H990   1.110       .  S
C985        H991   1.086       .  S
C985        C986   1.367       .  D
C987        H992   1.085       .  S
C987        C988   1.373       .  D
C988       C1021   1.495       .  S
C993        C997   1.528       .  S
C993       C1017   1.508       .  S
C994       H1001   1.087       .  S
C994        C995   1.359   1_545  D
C995        C996   1.538       .  S
C996       C1000   1.541       .  S
C996       H1002   1.111       .  S
C997       H1003   1.087       .  S
C997        C998   1.362       .  D
C999       H1004   1.083       .  S
C999       C1000   1.376       .  D
C1000      C1022   1.492       .  S
C1005      C1006   1.536       .  S
C1005      C1011   1.515       .  S
C1005      C1369   1.528       .  S
C1005      C1018   1.509       .  S
C1006      H1013   1.082       .  S
C1006      C1367   1.381       .  D
C1007      C1008   1.556       .  S
C1007      C1366   1.383   1_554  D
C1008      C1012   1.541       .  S
C1008      C1010   1.541       .  S
C1008      H1014   1.108       .  S
C1009      C1365   1.522   1_554  S
C1009      H1015   1.087       .  S
C1009      C1010   1.359       .  D
C1011      H1016   1.087       .  S
C1011      C1372   1.363       .  D
C1012      C1371   1.368       .  D
C1012      C1030   1.483       .  S
C1017      H1019   1.088       .  S
C1017      C1018   1.334       .  D
C1018      H1020   1.083       .  S
C1021      H1023   1.085       .  S
C1021      C1022   1.349       .  D
C1022      H1024   1.086       .  S
C1025      H1027   1.080       .  S
C1025      C1026   1.342       .  D
C1026      H1028   1.087       .  S
C1029      H1031   1.086       .  S
C1029      C1030   1.345       .  D
C1030      H1032   1.085       .  S
C1033      H1035   1.088       .  S
C1033      C1034   1.346       .  D
C1034      H1036   1.081       .  S
C1037      H1039   1.087       .  S
C1037      C1038   1.342       .  D
C1038      H1040   1.084       .  S
C1041      H1043   1.088       .  S
C1041      C1042   1.338       .  D
C1042      H1044   1.082       .  S
C1045      H1047   1.086       .  S
C1045      C1046   1.343       .  D
C1046      H1048   1.084       .  S
C1049      H1051   1.085       .  S
C1049      C1050   1.350       .  D
C1050      H1052   1.088       .  S
C1053      H1055   1.087       .  S
C1053      C1054   1.346       .  D
C1054      H1056   1.086       .  S
C1057      H1059   1.085       .  S
C1057      C1058   1.347       .  D
C1058      H1060   1.077       .  S
C1061      H1063   1.085       .  S
C1061      C1062   1.344       .  D
C1062      H1064   1.085       .  S
C1065      H1067   1.087       .  S
C1065      C1066   1.340       .  D
C1066      H1068   1.086       .  S
C1069      H1071   1.085       .  S
C1069      C1070   1.351       .  D
C1070      H1072   1.086       .  S
C1073      H1075   1.086       .  S
C1073      C1074   1.340       .  D
C1074      H1076   1.087       .  S
C1077      H1079   1.088       .  S
C1077      C1078   1.337       .  D
C1078      H1080   1.085       .  S
In1081     O1083   2.275       .  S
In1081     O1084   2.251       .  S
In1081     O1092   2.258       .  S
In1081     O1086   2.259       .  S
In1081     O1088   2.203       .  S
In1081     O1089   2.260       .  S
In1081     O1090   2.222       .  S
In1081     O1093   2.272       .  S
C1082      O1088   1.259       .  A
C1082      O1090   1.260       .  A
C1082      C1309   1.438       .  S
O1083      C1091   1.259       .  A
O1084      C1091   1.263       .  A
C1085      O1092   1.262       .  A
C1085      O1086   1.256       .  A
C1085      C1210   1.480       .  S
C1087      O1089   1.262       .  A
C1087      O1093   1.257       .  A
C1087      C1222   1.483       .  S
C1091      C1112   1.484       .  S
In1094     O1096   2.244   1_655  S
In1094     O1097   2.232       .  S
In1094     O1105   2.261       .  S
In1094     O1099   2.228       .  S
In1094     O1101   2.194       .  S
In1094     O1102   2.255       .  S
In1094     O1103   2.233       .  S
In1094     O1106   2.268       .  S
C1095      O1101   1.259       .  A
C1095      O1103   1.260       .  A
C1095      C1322   1.441       .  S
O1096      C1104   1.259       .  A
O1097      C1104   1.263   1_655  A
C1098      O1105   1.261       .  A
C1098      O1099   1.254       .  A
C1100      O1102   1.260       .  A
C1100      O1106   1.255       .  A
C1100      C1198   1.479       .  S
C1104      C1136   1.470       .  S
C1107      C1108   1.527       .  S
C1107      C1113   1.519       .  S
C1107      C1111   1.534       .  S
C1107      C1433   1.507       .  S
C1108      H1115   1.087       .  S
C1108      C1109   1.369       .  D
C1109      C1165   1.487       .  S
C1109      C1110   1.552       .  S
C1110      C1114   1.569       .  S
C1110      C1112   1.551       .  S
C1110      H1116   1.110       .  S
C1111      H1117   1.086       .  S
C1111      C1112   1.367       .  D
C1113      H1118   1.087       .  S
C1113      C1114   1.357       .  D
C1114      C1437   1.493       .  S
C1119      C1125   1.525   1_556  S
C1119      C1123   1.537       .  S
C1119      C1434   1.506       .  S
C1120      H1127   1.086       .  S
C1120      C1121   1.356       .  D
C1121      C1159   1.485       .  S
C1121      C1122   1.555       .  S
C1122      C1126   1.549       .  S
C1122      C1124   1.563       .  S
C1122      H1128   1.108       .  S
C1123      H1129   1.078       .  S
C1124      C1367   1.514       .  S
C1125      H1130   1.086   1_554  S
C1126      C1429   1.487       .  S
C1131      C1132   1.525       .  S
C1131      C1137   1.530       .  S
C1131      C1135   1.533       .  S
C1131      C1425   1.500       .  S
C1132      H1139   1.087       .  S
C1132      C1133   1.363       .  D
C1133      C1134   1.539       .  S
C1134      C1138   1.548       .  S
C1134      C1136   1.542       .  S
C1134      H1140   1.111       .  S
C1135      H1141   1.086       .  S
C1135      C1136   1.360       .  D
C1137      H1142   1.085       .  S
C1137      C1138   1.370       .  D
C1138      C1430   1.488       .  S
C1143      C1144   1.511       .  S
C1143      C1149   1.513       .  S
C1143      C1147   1.533       .  S
C1143      C1426   1.498       .  S
C1144      H1151   1.087       .  S
C1144      C1145   1.356       .  D
C1145      C1172   1.491       .  S
C1145      C1146   1.574       .  S
C1146      C1150   1.570       .  S
C1146      C1148   1.563       .  S
C1146      H1152   1.109       .  S
C1147      H1153   1.082       .  S
C1147      C1148   1.381       .  D
C1148      C1343   1.525       .  S
C1149      H1154   1.088       .  S
C1149      C1150   1.357       .  D
C1150      C1438   1.488       .  S
In1155     O1157   2.304       .  S
In1155     O1158   2.220       .  S
In1155     O1166   2.264       .  S
In1155     O1160   2.265       .  S
In1155     O1162   2.281       .  S
In1155     O1163   2.211       .  S
In1155     O1164   2.241       .  S
In1155     O1167   2.220       .  S
C1156      O1162   1.266       .  A
C1156      O1164   1.259       .  A
C1156      C1207   1.485       .  S
O1157      C1165   1.263       .  A
O1158      C1165   1.256       .  A
C1159      O1166   1.254       .  A
C1159      O1160   1.268       .  A
C1161      O1163   1.261       .  A
C1161      O1167   1.260       .  A
C1161      C1243   1.441       .  S
In1168     O1170   2.264       .  S
In1168     O1171   2.226       .  S
In1168     O1179   2.302       .  S
In1168     O1173   2.234       .  S
In1168     O1175   2.292   1_455  S
In1168     O1176   2.213       .  S
In1168     O1177   2.253   1_455  S
In1168     O1180   2.221       .  S
C1169      O1175   1.264       .  A
C1169      O1177   1.258       .  A
C1169      C1183   1.489       .  S
O1170      C1178   1.261       .  A
O1171      C1178   1.256       .  A
C1172      O1179   1.256       .  A
C1172      O1173   1.266       .  A
C1174      O1176   1.259       .  A
C1174      O1180   1.262       .  A
C1174      C1230   1.445       .  S
C1181      C1182   1.552       .  S
C1181      C1187   1.540       .  S
C1181      C1185   1.534       .  S
C1181      C1417   1.520       .  S
C1182      H1189   1.086       .  S
C1182      C1183   1.367       .  D
C1183      C1184   1.539       .  S
C1184      C1188   1.541       .  S
C1184      C1186   1.534       .  S
C1184      H1190   1.111       .  S
C1185      H1191   1.087       .  S
C1185      C1186   1.364       .  D
C1187      H1192   1.086       .  S
C1187      C1188   1.369       .  D
C1188      C1421   1.479       .  S
C1193      C1194   1.545       .  S
C1193      C1199   1.541       .  S
C1193      C1197   1.528       .  S
C1193      C1418   1.523       .  S
C1194      H1201   1.082       .  S
C1194      C1195   1.372       .  D
C1195      C1196   1.553       .  S
C1195      C1272   1.520       .  S
C1196      C1200   1.542       .  S
C1196      C1198   1.549       .  S
C1196      H1202   1.107       .  S
C1197      H1203   1.087       .  S
C1197      C1198   1.360       .  D
C1199      H1204   1.086       .  S
C1199      C1200   1.371       .  D
C1200      C1413   1.483       .  S
C1205      C1206   1.549       .  S
C1205      C1211   1.544       .  S
C1205      C1209   1.543       .  S
C1205      C1409   1.533       .  S
C1206      H1213   1.086       .  S
C1206      C1207   1.367       .  D
C1207      C1208   1.536       .  S
C1208      C1212   1.539       .  S
C1208      C1210   1.534       .  S
C1208      H1214   1.111       .  S
C1209      H1215   1.086       .  S
C1209      C1210   1.374       .  D
C1211      H1216   1.087       .  S
C1211      C1212   1.367       .  D
C1212      C1414   1.484       .  S
C1217      C1218   1.531       .  S
C1217      C1223   1.548       .  S
C1217      C1410   1.536       .  S
C1218      H1225   1.082       .  S
C1219      C1220   1.547       .  S
C1219      C1296   1.526       .  S
C1220      C1224   1.550       .  S
C1220      C1222   1.550       .  S
C1220      H1226   1.109       .  S
C1221      H1227   1.087       .  S
C1221      C1222   1.361       .  D
C1223      H1228   1.082       .  S
C1224      C1422   1.487       .  S
In1229     O1231   2.262   1_455  S
In1229     O1232   2.247       .  S
In1229     O1240   2.278       .  S
In1229     O1234   2.245       .  S
In1229     O1236   2.220       .  S
In1229     O1237   2.249       .  S
In1229     O1238   2.223       .  S
In1229     O1241   2.295       .  S
C1230      O1236   1.259       .  A
C1230      O1238   1.258       .  A
O1231      C1239   1.259       .  A
O1232      C1239   1.261   1_455  A
C1233      O1240   1.262       .  A
C1233      O1234   1.257       .  A
C1235      O1237   1.260       .  A
C1235      O1241   1.259       .  A
C1235      C1346   1.490       .  S
C1239      C1260   1.478       .  S
In1242     O1244   2.234       .  S
In1242     O1245   2.242       .  S
In1242     O1253   2.268       .  S
In1242     O1247   2.188       .  S
In1242     O1249   2.203       .  S
In1242     O1250   2.252       .  S
In1242     O1251   2.222       .  S
In1242     O1254   2.241       .  S
C1243      O1249   1.258       .  A
C1243      O1251   1.261       .  A
O1244      C1252   1.257       .  A
O1245      C1252   1.263       .  A
C1246      O1253   1.263       .  A
C1246      O1247   1.255       .  A
C1246      C1358   1.465       .  S
C1248      O1250   1.265       .  A
C1248      O1254   1.255       .  A
C1248      C1370   1.473       .  S
C1252      C1284   1.468       .  S
C1255      C1256   1.540       .  S
C1255      C1401   1.521       .  S
C1256      H1263   1.083       .  S
C1256      C1257   1.368       .  D
C1258      C1262   1.544       .  S
C1258      C1260   1.542       .  S
C1258      H1264   1.111       .  S
C1259      H1265   1.087       .  S
C1259      C1260   1.365       .  D
C1261      H1266   1.085       .  S
C1261      C1262   1.370       .  D
C1262      C1405   1.490       .  S
C1267      C1268   1.530       .  S
C1267      C1273   1.532       .  S
C1267      C1271   1.538       .  S
C1267      C1402   1.520       .  S
C1268      H1275   1.087       .  S
C1268      C1269   1.359       .  D
C1269      C1320   1.475       .  S
C1269      C1270   1.543       .  S
C1270      C1274   1.536       .  S
C1270      C1272   1.557       .  S
C1270      H1276   1.107       .  S
C1271      H1277   1.082       .  S
C1271      C1272   1.381       .  D
C1273      H1278   1.085       .  S
C1273      C1274   1.368       .  D
C1274      C1398   1.478       .  S
C1279      C1280   1.538       .  S
C1279      C1393   1.520       .  S
C1280      H1287   1.086       .  S
C1280      C1281   1.369       .  D
C1281      C1313   1.479       .  S
C1282      C1286   1.536       .  S
C1282      C1284   1.542       .  S
C1282      H1288   1.111       .  S
C1283      H1289   1.087       .  S
C1283      C1284   1.361       .  D
C1285      H1290   1.086       .  S
C1285      C1286   1.367       .  D
C1286      C1397   1.478       .  S
C1291      C1297   1.526       .  S
C1291      C1295   1.527       .  S
C1291      C1394   1.516       .  S
C1292      H1299   1.086   1_556  S
C1292      C1293   1.366       .  D
C1293      C1307   1.495       .  S
C1293      C1294   1.558       .  S
C1294      C1298   1.554       .  S
C1294      C1296   1.571       .  S
C1294      H1300   1.109       .  S
C1295      H1301   1.081       .  S
C1297      H1302   1.086       .  S
C1298      C1406   1.492       .  S
In1303     O1305   2.274       .  S
In1303     O1306   2.236       .  S
In1303     O1314   2.290       .  S
In1303     O1308   2.271       .  S
In1303     O1310   2.253       .  S
In1303     O1311   2.195       .  S
In1303     O1312   2.250       .  S
In1303     O1315   2.220       .  S
C1304      O1310   1.264       .  A
C1304      O1312   1.256       .  A
C1304      C1355   1.474       .  S
O1305      C1313   1.263       .  A
O1306      C1313   1.255       .  A
C1307      O1314   1.258       .  A
C1307      O1308   1.264       .  A
C1309      O1311   1.258       .  A
C1309      O1315   1.261       .  A
In1316     O1318   2.279       .  S
In1316     O1319   2.202       .  S
In1316     O1327   2.264       .  S
In1316     O1321   2.240       .  S
In1316     O1323   2.235       .  S
In1316     O1324   2.188       .  S
In1316     O1325   2.222   1_655  S
In1316     O1328   2.234       .  S
C1317      O1323   1.262   1_455  A
C1317      O1325   1.259       .  A
C1317      C1331   1.461       .  S
O1318      C1326   1.265       .  A
O1319      C1326   1.254       .  A
C1320      O1327   1.259       .  A
C1320      O1321   1.258       .  A
C1322      O1324   1.257       .  A
C1322      O1328   1.263       .  A
C1329      C1333   1.547       .  S
C1329      C1386   1.524       .  S
C1330      H1337   1.087       .  S
C1330      C1331   1.362       .  D
C1331      C1332   1.534       .  S
C1332      C1336   1.540       .  S
C1332      H1338   1.111       .  S
C1333      H1339   1.083       .  S
C1333      C1334   1.371       .  D
C1335      H1340   1.085       .  S
C1335      C1336   1.365       .  D
C1336      C1389   1.478       .  S
C1341      C1342   1.525       .  S
C1341      C1347   1.529       .  S
C1341      C1345   1.531       .  S
C1341      C1385   1.522       .  S
C1342      H1349   1.081       .  S
C1342      C1343   1.374       .  D
C1343      C1344   1.567       .  S
C1344      C1348   1.555       .  S
C1344      C1346   1.554       .  S
C1344      H1350   1.110       .  S
C1345      H1351   1.086       .  S
C1345      C1346   1.366       .  D
C1347      H1352   1.085       .  S
C1347      C1348   1.371       .  D
C1348      C1381   1.493       .  S
C1353      C1357   1.527       .  S
C1353      C1377   1.518       .  S
C1354      H1361   1.086       .  S
C1354      C1355   1.363       .  D
C1355      C1356   1.548       .  S
C1356      C1360   1.547       .  S
C1356      H1362   1.111       .  S
C1357      H1363   1.087       .  S
C1357      C1358   1.361       .  D
C1359      H1364   1.086       .  S
C1359      C1360   1.367       .  D
C1360      C1382   1.491       .  S
C1365      C1366   1.544       .  S
C1365      C1371   1.526   1_556  S
C1365      C1378   1.521       .  S
C1366      H1373   1.078       .  S
C1367      C1368   1.553       .  S
C1368      C1372   1.543       .  S
C1368      C1370   1.550       .  S
C1368      H1374   1.108       .  S
C1369      H1375   1.087       .  S
C1369      C1370   1.360       .  D
C1371      H1376   1.086   1_554  S
C1372      C1390   1.476       .  S
C1377      H1379   1.082       .  S
C1377      C1378   1.338       .  D
C1378      H1380   1.088       .  S
C1381      H1383   1.085       .  S
C1381      C1382   1.354       .  D
C1382      H1384   1.085       .  S
C1385      H1387   1.082       .  S
C1385      C1386   1.349       .  D
C1386      H1388   1.087       .  S
C1389      H1391   1.087       .  S
C1389      C1390   1.348       .  D
C1390      H1392   1.084       .  S
C1393      H1395   1.087       .  S
C1393      C1394   1.344       .  D
C1394      H1396   1.081       .  S
C1397      H1399   1.085       .  S
C1397      C1398   1.344       .  D
C1398      H1400   1.086       .  S
C1401      H1403   1.087       .  S
C1401      C1402   1.355       .  D
C1402      H1404   1.082       .  S
C1405      H1407   1.086   1_556  S
C1405      C1406   1.352       .  D
C1406      H1408   1.085       .  S
C1409      H1411   1.083       .  S
C1409      C1410   1.353       .  D
C1410      H1412   1.088       .  S
C1413      H1415   1.087       .  S
C1413      C1414   1.348       .  D
C1414      H1416   1.086       .  S
C1417      H1419   1.087       .  S
C1417      C1418   1.347       .  D
C1418      H1420   1.087       .  S
C1421      H1423   1.086       .  S
C1421      C1422   1.346       .  D
C1422      H1424   1.087       .  S
C1425      H1427   1.087       .  S
C1425      C1426   1.334       .  D
C1426      H1428   1.087       .  S
C1429      H1431   1.084       .  S
C1429      C1430   1.351       .  D
C1430      H1432   1.086       .  S
C1433      H1435   1.082       .  S
C1433      C1434   1.340       .  D
C1434      H1436   1.088       .  S
C1437      H1439   1.088       .  S
C1437      C1438   1.331       .  D
C1438      H1440   1.087       .  S
