geometry optimzed in LAMMPS
_audit_creation_date              2020-11-30 
_audit_creation_method            'lammps2cif' 
_symmetry_space_group_name_H-M    'P1' 
_symmetry_Int_Tables_number       1 
_symmetry_cell_setting            triclinic 
loop_ 
_symmetry_equiv_pos_as_xyz 
  x,y,z 
_cell_length_a                    47.26046119 
_cell_length_b                    43.09861905016699 
_cell_length_c                    44.11101899030354 
_cell_angle_alpha                 90.03940213205809 
_cell_angle_beta                  90.07229866049049 
_cell_angle_gamma                 90.43234033480952 
loop_ 
_atom_site_label 
_atom_site_type_symbol 
_atom_site_fract_x 
_atom_site_fract_y 
_atom_site_fract_z 
_atom_site_charge 
N1          N  0.49487145  0.03901405  0.50282681    -0.37000
N2          N  0.49165313  0.99083330  0.45668506    -0.57600
N3          N  0.49202169  0.94305996  0.50391739    -0.37000
N4          N  0.49714033  0.99114362  0.55000680    -0.57600
C5          C  0.49879557  0.05659819  0.47763908     0.26500
C6          C  0.50135540  0.05678501  0.52727263     0.26500
C7          C  0.49594139  0.92530680  0.47895751     0.26500
C8          C  0.49849067  0.92550483  0.52841417     0.26500
C9          C  0.48859705  0.01588487  0.43850134     0.35200
C10         C  0.48698746  0.96549697  0.43919474     0.35200
C11         C  0.49509717  0.01655688  0.56787410     0.35200
C12         C  0.49386603  0.96618365  0.56833252     0.35200
C13         C  0.50724554  0.08619742  0.48627341    -0.22300
C14         C  0.50882122  0.08633442  0.51749669    -0.22300
C15         C  0.50451636  0.89592128  0.48776636    -0.22300
C16         C  0.50609349  0.89604870  0.51893280    -0.22300
C17         C  0.48211625  0.00631868  0.40925106    -0.23400
C18         C  0.48107111  0.97450027  0.40970552    -0.23400
C19         C  0.49076687  0.00760982  0.59773861    -0.23400
C20         C  0.48996920  0.97577157  0.59800913    -0.23400
C21         C  0.49380138  0.04710793  0.44720003    -0.18700
C22         C  0.49926580  0.04761029  0.55817274    -0.18700
C23         C  0.49646483  0.93487336  0.55912113    -0.18700
C24         C  0.49081657  0.93438496  0.44855854    -0.18700
H25         H  0.51162619  0.10579022  0.47163299     0.14200
H26         H  0.51460884  0.10609509  0.53139133     0.14200
H27         H  0.50901840  0.87629576  0.47327768     0.14200
H28         H  0.51207409  0.87659831  0.53300263     0.14200
H29         H  0.47908557  0.02066329  0.38940606     0.12500
H30         H  0.47713370  0.95969025  0.39030491     0.12500
H31         H  0.48886376  0.02241410  0.61744246     0.12500
H32         H  0.48730962  0.96133739  0.61788926     0.12500
H33         H  0.48567232  0.01714119  0.50353907     0.25700
H34         H  0.48267960  0.96475752  0.50433889     0.25700
N35         N  0.95362538  0.49865528  0.49351999    -0.37000
N36         N  0.99044230  0.55265621  0.49492099    -0.57600
N37         N  0.03900598  0.51140646  0.49493946    -0.37000
N38         N  0.00193090  0.45718186  0.49202531    -0.57600
C39         C  0.93449292  0.52143573  0.48913326     0.26500
C40         C  0.94061828  0.47139358  0.48698195     0.26500
C41         C  0.05223897  0.53902717  0.49070139     0.26500
C42         C  0.05821067  0.48884190  0.48998751     0.26500
C43         C  0.96555942  0.56706097  0.49990582     0.35200
C44         C  0.01106837  0.57394357  0.49981020     0.35200
C45         C  0.98116732  0.43592653  0.49638463     0.35200
C46         C  0.02665963  0.44274910  0.49765397     0.35200
C47         C  0.90899271  0.50846531  0.47981806    -0.22300
C48         C  0.91283298  0.47704277  0.47841877    -0.22300
C49         C  0.08032519  0.53393768  0.48319367    -0.22300
C50         C  0.08408923  0.50235392  0.48273739    -0.22300
C51         C  0.97031845  0.59789957  0.50729891    -0.23400
C52         C  0.99915004  0.60229903  0.50717433    -0.23400
C53         C  0.99275737  0.40759923  0.50421818    -0.23400
C54         C  0.02163633  0.41191305  0.50499141    -0.23400
C55         C  0.93862685  0.55324662  0.49583400    -0.18700
C56         C  0.95205045  0.44151249  0.49190426    -0.18700
C57         C  0.05368969  0.45662342  0.49450223    -0.18700
C58         C  0.04038470  0.56859410  0.49615187    -0.18700
H59         H  0.88926617  0.52014353  0.47528708     0.14200
H60         H  0.89646263  0.46041647  0.47269443     0.14200
H61         H  0.09670169  0.55112312  0.47920271     0.14200
H62         H  0.10391298  0.49080413  0.47834379     0.14200
H63         H  0.95466571  0.61549360  0.51186542     0.12500
H64         H  0.01001852  0.62401052  0.51167324     0.12500
H65         H  0.98159812  0.38607001  0.50870879     0.12500
H66         H  0.03714241  0.39434005  0.51019832     0.12500
H67         H  0.97288320  0.50113293  0.50454895     0.25700
H68         H  0.01923273  0.50822760  0.50458507     0.25700
N69         N  0.55491034  0.49659188  0.99835174    -0.37000
N70         N  0.51253918  0.49351013  0.95013809    -0.57600
N71         N  0.46739110  0.48994405  0.99601032    -0.37000
N72         N  0.50985549  0.49058227  0.04413940    -0.57600
C73         C  0.57209575  0.49386528  0.97388037     0.26500
C74         C  0.57070830  0.49112505  0.02344618     0.26500
C75         C  0.45203162  0.48429606  0.97051347     0.26500
C76         C  0.45059167  0.48393663  0.02033886     0.26500
C77         C  0.53573498  0.49977304  0.93297963     0.35200
C78         C  0.48968431  0.49544885  0.93159003     0.35200
C79         C  0.53243971  0.49442086  0.06279535     0.35200
C80         C  0.48634085  0.49233834  0.06167379     0.35200
C81         C  0.59924733  0.48695399  0.98361718    -0.22300
C82         C  0.59836392  0.48516920  0.01479089    -0.22300
C83         C  0.42501321  0.47479832  0.97883706    -0.22300
C84         C  0.42410417  0.47461617  0.01011573    -0.22300
C85         C  0.52758661  0.50518143  0.90328561    -0.23400
C86         C  0.49859457  0.50237564  0.90237484    -0.23400
C87         C  0.52319824  0.49807504  0.09240336    -0.23400
C88         C  0.49413433  0.49680460  0.09169343    -0.23400
C89         C  0.56431182  0.49880269  0.94313087    -0.18700
C90         C  0.56134247  0.49298448  0.05400371    -0.18700
C91         C  0.45798936  0.48812165  0.05143837    -0.18700
C92         C  0.46101438  0.48950458  0.94003868    -0.18700
H93         H  0.61785291  0.48365389  0.96973539     0.14200
H94         H  0.61618339  0.48030182  0.02942876     0.14200
H95         H  0.40754307  0.46900297  0.96394589     0.14200
H96         H  0.40586540  0.46855283  0.02375324     0.14200
H97         H  0.54114292  0.51019724  0.88411838     0.12500
H98         H  0.48564664  0.50483260  0.88228804     0.12500
H99         H  0.53605533  0.50105000  0.11253649     0.12500
H100        H  0.48035975  0.49851526  0.11119489     0.12500
H101        H  0.53440268  0.50493288  0.99816069     0.25700
H102        H  0.48712339  0.50052861  0.99672842     0.25700
N103        N  0.00856411  0.46172995  0.00369765    -0.37000
N104        N  0.01605495  0.50997011  0.95815710    -0.57600
N105        N  0.01686529  0.55711925  0.00577862    -0.37000
N106        N  0.00766057  0.50891541  0.05126572    -0.57600
C107        C  0.00403825  0.44483642  0.97816763     0.26500
C108        C  0.00061239  0.44407492  0.02768574     0.26500
C109        C  0.01392498  0.57525505  0.98089879     0.26500
C110        C  0.01054109  0.57472821  0.03028200     0.26500
C111        C  0.01868639  0.48484140  0.93999528     0.35200
C112        C  0.02252576  0.53512091  0.94110789     0.35200
C113        C  0.00791720  0.48326602  0.06895393     0.35200
C114        C  0.01161861  0.53349990  0.06996385     0.35200
C115        C  0.99338419  0.41587972  0.98614241    -0.22300
C116        C  0.99130212  0.41537975  0.01731113    -0.22300
C117        C  0.00620812  0.60489957  0.98984201    -0.22300
C118        C  0.00412030  0.60456414  0.02093930    -0.22300
C119        C  0.02696905  0.49418922  0.91120833    -0.23400
C120        C  0.02940063  0.52597079  0.91193831    -0.23400
C121        C  0.01157224  0.49172188  0.09907477    -0.23400
C122        C  0.01389933  0.52347937  0.09969752    -0.23400
C123        C  0.01096341  0.45405118  0.94811207    -0.18700
C124        C  0.00318257  0.45246582  0.05871210    -0.18700
C125        C  0.01133604  0.56499397  0.06092782    -0.18700
C126        C  0.01912303  0.56626950  0.95045987    -0.18700
H127        H  0.98809010  0.39681410  0.97114811     0.14200
H128        H  0.98400684  0.39594190  0.03079450     0.14200
H129        H  0.00257487  0.62484597  0.97550478     0.14200
H130        H  0.99844104  0.62409999  0.03505392     0.14200
H131        H  0.03006811  0.47980907  0.89139585     0.12500
H132        H  0.03475349  0.54071405  0.89290206     0.12500
H133        H  0.01209825  0.47665774  0.11868348     0.12500
H134        H  0.01663331  0.53760143  0.11980560     0.12500
H135        H  0.01939035  0.48268794  0.00498048     0.25700
H136        H  0.02535518  0.53498684  0.00628095     0.25700
N137        N  0.55409005  0.01414152  0.99699295    -0.37000
N138        N  0.51879457  0.95866310  0.99936546    -0.57600
N139        N  0.46928819  0.99738243  0.99751381    -0.37000
N140        N  0.50464486  0.05308973  0.99339606    -0.57600
C141        C  0.57362801  0.99184959  0.99259198     0.26500
C142        C  0.56617493  0.04150378  0.98907285     0.26500
C143        C  0.45724138  0.96928733  0.99212223     0.26500
C144        C  0.44959726  0.01911539  0.99157023     0.26500
C145        C  0.54402572  0.94566919  0.00555794     0.35200
C146        C  0.49891744  0.93654874  0.00412738     0.35200
C147        C  0.52452005  0.07564856  0.99606329     0.35200
C148        C  0.47938282  0.06677020  0.99785718     0.35200
C149        C  0.59847664  0.00527823  0.98188237    -0.22300
C150        C  0.59377477  0.03655489  0.97968496    -0.22300
C151        C  0.42948817  0.97328471  0.98272644    -0.22300
C152        C  0.42461776  0.00469700  0.98255024    -0.22300
C153        C  0.54025135  0.91499427  0.01418174    -0.23400
C154        C  0.51161654  0.90916838  0.01317433    -0.23400
C155        C  0.51181051  0.10401258  0.00124376    -0.23400
C156        C  0.48315196  0.09837793  0.00243147    -0.23400
C157        C  0.57038957  0.96016414  0.00026209    -0.18700
C158        C  0.55386541  0.07103837  0.99268518    -0.18700
C159        C  0.45292129  0.05140424  0.99623905    -0.18700
C160        C  0.46981445  0.94019032  0.99793686    -0.18700
H161        H  0.61827826  0.99398089  0.97682572     0.14200
H162        H  0.60922522  0.05369500  0.97256004     0.14200
H163        H  0.41405587  0.95543961  0.97731593     0.14200
H164        H  0.40478261  0.01561365  0.97678489     0.14200
H165        H  0.55646369  0.89834038  0.01979415     0.12500
H166        H  0.50140475  0.88716675  0.01800693     0.12500
H167        H  0.52209174  0.12639352  0.00377142     0.12500
H168        H  0.46694014  0.11560818  0.00597065     0.12500
H169        H  0.53515149  0.01136194  0.00858786     0.25700
H170        H  0.48842549  0.00150463  0.00837482     0.25700
O171        O  0.73543206  0.78764171  0.82214913    -0.81300
O172        O  0.78043720  0.69281814  0.72980132    -0.66000
O173        O  0.77344580  0.76503850  0.77917432    -1.12600
C174        C  0.70425759  0.79259486  0.70521453     1.05600
O175        O  0.78343396  0.72331898  0.68942730    -0.79200
O176        O  0.77270749  0.78392276  0.68747105    -0.66800
Ni177      Ni  0.76918113  0.76294098  0.82179596     1.34900
C178        C  0.78038061  0.80501885  0.70581172     0.84300
O179        O  0.80723016  0.71177352  0.78089220    -0.79800
O180        O  0.80264681  0.73830925  0.82462977    -0.90000
C181        C  0.78783593  0.69753421  0.70249076     0.83900
O182        O  0.74569352  0.72703513  0.82414519    -0.68200
O183        O  0.71592894  0.77244520  0.68814802    -0.87500
C184        C  0.73900967  0.70546176  0.80589848     0.84700
C185        C  0.81529760  0.71864258  0.80783887     1.06300
H186        H  0.72943752  0.73359708  0.73715132     0.38100
O187        O  0.74646364  0.74546034  0.73327016    -1.10200
O188        O  0.77134053  0.80642998  0.73300512    -0.66800
Ni189      Ni  0.74357625  0.78279940  0.75597426     1.26300
O190        O  0.74931392  0.70348930  0.77923667    -0.67100
O191        O  0.71321835  0.79925796  0.73180510    -0.79400
C192        C  0.73147631  0.81329038  0.80868414     0.84100
O193        O  0.74039736  0.81794784  0.78198864    -0.66500
Ni194      Ni  0.74958437  0.74778883  0.69046928     1.27400
Ni195      Ni  0.77673619  0.72779209  0.75633323     1.26100
H196        H  0.79052015  0.77696079  0.77571197     0.38600
O197        O  0.28111736  0.67079781  0.76442994    -0.81300
O198        O  0.20173191  0.78425804  0.72604791    -0.66000
O199        O  0.26033075  0.72342723  0.73420322    -1.12600
C200        C  0.29655862  0.79292200  0.80910068     1.05600
O201        O  0.23134465  0.82406692  0.72892425    -0.79200
O202        O  0.28700932  0.81405469  0.73616705    -0.66800
Ni203      Ni  0.24843069  0.68133416  0.74039745     1.34900
C204        C  0.30473439  0.79327803  0.72907703     0.84300
O205        O  0.21450280  0.73276725  0.69629321    -0.79800
O206        O  0.21473955  0.68504296  0.71563987    -0.90000
C207        C  0.20734462  0.81276491  0.72169434     0.83900
O208        O  0.22782026  0.69160802  0.77601398    -0.68200
O209        O  0.28066272  0.81339427  0.79732753    -0.87500
C210        C  0.20673155  0.70970197  0.77655513     0.84700
C211        C  0.20572515  0.70493936  0.69668226     1.06300
H212        H  0.23638734  0.76913654  0.78219868     0.38100
O213        O  0.24814944  0.77231662  0.76456372    -1.10200
O214        O  0.30347627  0.76552653  0.73925049    -0.66800
Ni215      Ni  0.27898293  0.74366143  0.76754643     1.26300
O216        O  0.20403387  0.73193325  0.75759479    -0.67100
O217        O  0.29696470  0.76475115  0.80047599    -0.79400
C218        C  0.30423996  0.68356378  0.77277815     0.84100
O219        O  0.30819820  0.71280707  0.77116615    -0.66500
Ni220      Ni  0.25573398  0.81591438  0.76311658     1.27400
Ni221      Ni  0.23049154  0.75310010  0.73038993     1.26100
H222        H  0.27206916  0.72426488  0.71629800     0.38600
O223        O  0.78091543  0.29075440  0.67939157    -0.81300
O224        O  0.73470956  0.19344919  0.77122585    -0.66000
O225        O  0.74319576  0.26578817  0.72209737    -1.12600
C226        C  0.80939157  0.29655613  0.79889412     1.05600
O227        O  0.73259202  0.22257641  0.81276555    -0.79200
O228        O  0.74032372  0.28362116  0.81368575    -0.66800
Ni229      Ni  0.74822271  0.26360004  0.67940409     1.34900
C230        C  0.73306544  0.30458469  0.79513131     0.84300
O231        O  0.71013028  0.21126960  0.71966373    -0.79800
O232        O  0.71576729  0.23641504  0.67537525    -0.90000
C233        C  0.72716340  0.19762140  0.79855390     0.83900
O234        O  0.77347273  0.22946687  0.67860495    -0.68200
O235        O  0.79766199  0.27602895  0.81556497    -0.87500
C236        C  0.77939666  0.20786511  0.69700346     0.84700
C237        C  0.70314268  0.21650328  0.69216452     1.06300
H238        H  0.78623424  0.23551569  0.76565993     0.38100
O239        O  0.76903706  0.24695061  0.76911569    -1.10200
O240        O  0.74356701  0.30693690  0.76858034    -0.66800
Ni241      Ni  0.77230656  0.28438808  0.74644820     1.26300
O242        O  0.76767363  0.20506871  0.72293997    -0.67100
O243        O  0.80157789  0.30202048  0.77170174    -0.79400
C244        C  0.78613467  0.31542589  0.69431073     0.84100
O245        O  0.77624649  0.31971881  0.72066796    -0.66500
Ni246      Ni  0.76519672  0.24920803  0.81198707     1.27400
Ni247      Ni  0.73945241  0.22852147  0.74500975     1.26100
H248        H  0.72595167  0.27727442  0.72503891     0.38600
O249        O  0.28918724  0.21709839  0.68695588    -0.81300
O250        O  0.19181078  0.27247228  0.76395666    -0.66000
O251        O  0.26184652  0.26210579  0.72217361    -1.12600
C252        C  0.28399460  0.20148706  0.80922694     1.05600
O253        O  0.21645193  0.28538044  0.80484122    -0.79200
O254        O  0.27204282  0.27627690  0.81460121    -0.66800
Ni255      Ni  0.26406344  0.25168579  0.68056057     1.34900
C256        C  0.29261542  0.28312259  0.79730456     0.84300
O257        O  0.21119799  0.29416663  0.71070896    -0.79800
O258        O  0.23962238  0.28561426  0.67072366    -0.90000
C259        C  0.19386344  0.28678465  0.78915439     0.83900
O260        O  0.23290985  0.22341410  0.67864899    -0.68200
O261        O  0.26271277  0.21444778  0.82165193    -0.87500
C262        C  0.21196309  0.21702542  0.69559681     0.84700
C263        C  0.21915838  0.29970728  0.68355527     1.06300
H264        H  0.23242968  0.21907202  0.76842478     0.38100
O265        O  0.24183365  0.23896736  0.77026645    -1.10200
O266        O  0.29609561  0.27018321  0.77151570    -0.66800
Ni267      Ni  0.27785952  0.23487404  0.75163543     1.26300
O268        O  0.20749980  0.23105481  0.72074781    -0.67100
O269        O  0.29265837  0.20773477  0.78245090    -0.79400
C270        C  0.31112094  0.21564137  0.70372814     0.84100
O271        O  0.31200842  0.22923868  0.72930682    -0.66500
Ni272      Ni  0.23975669  0.24953270  0.81179080     1.27400
Ni273      Ni  0.22582128  0.26637513  0.74102095     1.26100
H274        H  0.27123747  0.28202001  0.72397120     0.38600
O275        O  0.75599247  0.70837668  0.32188438    -0.81300
O276        O  0.72851105  0.80856497  0.22010732    -0.66000
O277        O  0.73073385  0.73781197  0.27247867    -1.12600
C278        C  0.80419494  0.70761362  0.20380997     1.05600
O279        O  0.72703552  0.77643842  0.18138926    -0.79200
O280        O  0.73743894  0.71597194  0.18116221    -0.66800
Ni281      Ni  0.73325053  0.74445685  0.31526398     1.34900
C282        C  0.72831150  0.69585635  0.19972706     0.84300
O283        O  0.69714568  0.79054936  0.26713766    -0.79800
O284        O  0.70926962  0.78052137  0.31498341    -0.90000
C285        C  0.72422448  0.80349588  0.19214020     0.83900
O286        O  0.76644791  0.76954192  0.31251593    -0.68200
O287        O  0.79380020  0.72750026  0.18564854    -0.87500
C288        C  0.77016181  0.79368853  0.29645554     0.84700
C289        C  0.69367573  0.79380176  0.29545103     1.06300
H290        H  0.77808774  0.76778996  0.23293648     0.38100
O291        O  0.76143264  0.75584268  0.22811333    -1.10200
O292        O  0.73572644  0.69545507  0.22752470    -0.66800
Ni293      Ni  0.76239900  0.71917362  0.25189919     1.26300
O294        O  0.75514943  0.79924756  0.27286060    -0.67100
O295        O  0.79400936  0.70189846  0.23009461    -0.79400
C296        C  0.76442148  0.68508851  0.30676456     0.84100
O297        O  0.76400462  0.68399834  0.27802728    -0.66500
Ni298      Ni  0.76049771  0.75214074  0.18510457     1.27400
Ni299      Ni  0.72962253  0.77410325  0.24753869     1.26100
H300        H  0.71377116  0.72577948  0.26874380     0.38600
O301        O  0.22944480  0.82759037  0.26272237    -0.81300
O302        O  0.30763826  0.71361708  0.22134854    -0.66000
O303        O  0.24955608  0.77494732  0.23190926    -1.12600
C304        C  0.21933308  0.70586351  0.31059691     1.05600
O305        O  0.27526430  0.67655226  0.22317092    -0.79200
O306        O  0.22115279  0.68419517  0.23840018    -0.66800
Ni307      Ni  0.26041568  0.81749526  0.23622951     1.34900
C308        C  0.20393056  0.70532961  0.23101859     0.84300
O309        O  0.29472841  0.76561605  0.19198129    -0.79800
O310        O  0.29198605  0.81428884  0.20874652    -0.90000
C311        C  0.29983172  0.68589472  0.21560806     0.83900
O312        O  0.28385682  0.80898172  0.27023323    -0.68200
O313        O  0.23498893  0.68548495  0.29819848    -0.87500
C314        C  0.30484821  0.79074016  0.27076845     0.84700
C315        C  0.30145963  0.79412591  0.19034247     1.06300
H316        H  0.27593291  0.72968005  0.27878667     0.38100
O317        O  0.26332773  0.72651577  0.26179022    -1.10200
O318        O  0.20678404  0.73342003  0.23965247    -0.66800
Ni319      Ni  0.23283382  0.75482195  0.26658198     1.26300
O320        O  0.30688959  0.76745859  0.25281957    -0.67100
O321        O  0.21703123  0.73352949  0.30074213    -0.79400
C322        C  0.20740010  0.81432153  0.27318768     0.84100
O323        O  0.20377906  0.78510809  0.27216206    -0.66500
Ni324      Ni  0.25554162  0.68311558  0.26078001     1.27400
Ni325      Ni  0.27961838  0.74554729  0.22686061     1.26100
H326        H  0.23699107  0.77337751  0.21466537     0.38600
O327        O  0.73147525  0.20886074  0.18107674    -0.81300
O328        O  0.76985107  0.30638311  0.27994986    -0.66000
O329        O  0.76441995  0.23585075  0.22713674    -1.12600
C330        C  0.69519059  0.20319860  0.30025080     1.05600
O331        O  0.77343546  0.27339394  0.31797033    -0.79200
O332        O  0.76289888  0.21273431  0.31889364    -0.66800
Ni333      Ni  0.76019217  0.24045413  0.18440763     1.34900
C334        C  0.77185130  0.19327715  0.29964508     0.84300
O335        O  0.79695952  0.29080209  0.22915882    -0.79800
O336        O  0.78900735  0.27216206  0.18246388    -0.90000
C337        C  0.77614287  0.30062820  0.30741712     0.83900
O338        O  0.73120140  0.27068089  0.18584626    -0.68200
O339        O  0.70598908  0.22368023  0.31779336    -0.87500
C340        C  0.72629409  0.29306009  0.20373726     0.84700
C341        C  0.80228061  0.28984495  0.20087534     1.06300
H342        H  0.71949325  0.26383035  0.26996727     0.38100
O343        O  0.73670888  0.25250408  0.27368000    -1.10200
O344        O  0.76339826  0.19303305  0.27216984    -0.66800
Ni345      Ni  0.73476121  0.21584041  0.24994849     1.26300
O346        O  0.73931178  0.29666850  0.22899581    -0.67100
O347        O  0.70493019  0.19725373  0.27384902    -0.79400
C348        C  0.72559201  0.18433553  0.19582691     0.84100
O349        O  0.73197196  0.18093523  0.22352712    -0.66500
Ni350      Ni  0.73968395  0.24868440  0.31643210     1.27400
Ni351      Ni  0.76679654  0.27232224  0.25185193     1.26100
H352        H  0.78176854  0.22454136  0.23005198     0.38600
N353        N  0.95227587  0.99811439  0.49741534    -0.37000
N354        N  0.99634727  0.00421902  0.54466811    -0.57600
N355        N  0.04024632  0.00265844  0.49799377    -0.37000
N356        N  0.99609797  0.99937237  0.45055898    -0.57600
C357        C  0.93577346  0.00370322  0.52196076     0.26500
C358        C  0.93566095  0.99985205  0.47232191     0.26500
C359        C  0.05661700  0.00796941  0.52288021     0.26500
C360        C  0.05640012  0.00771381  0.47298127     0.26500
C361        C  0.97317231  0.00221756  0.56269395     0.35200
C362        C  0.01931622  0.00270173  0.56311382     0.35200
C363        C  0.97325771  0.99384801  0.43254140     0.35200
C364        C  0.01942503  0.99790887  0.43268515     0.35200
C365        C  0.90818278  0.00846430  0.51233889    -0.22300
C366        C  0.90810103  0.00599322  0.48117543    -0.22300
C367        C  0.08372915  0.01580098  0.51351662    -0.22300
C368        C  0.08357593  0.01576879  0.48222301    -0.22300
C369        C  0.98152869  0.00007072  0.59277103    -0.23400
C370        C  0.01058119  0.00029247  0.59302986    -0.23400
C371        C  0.98218681  0.98899063  0.40300938    -0.23400
C372        C  0.01123867  0.99162810  0.40307624    -0.23400
C373        C  0.94449700  0.00347585  0.55288898    -0.18700
C374        C  0.94435599  0.99527071  0.44171398    -0.18700
C375        C  0.04787293  0.00392165  0.44207791    -0.18700
C376        C  0.04809379  0.00513192  0.55379639    -0.18700
H377        H  0.88989889  0.01313617  0.52632373     0.14200
H378        H  0.88974388  0.00846074  0.46670690     0.14200
H379        H  0.10180606  0.02111369  0.52773522     0.14200
H380        H  0.10160686  0.02086868  0.46792274     0.14200
H381        H  0.96810493  0.99864197  0.61259151     0.12500
H382        H  0.02372999  0.99924516  0.61310136     0.12500
H383        H  0.96910447  0.98458052  0.38329182     0.12500
H384        H  0.02474028  0.98953545  0.38339566     0.12500
H385        H  0.97307978  0.99083919  0.49799570     0.25700
H386        H  0.01998287  0.99341760  0.49808708     0.25700
C387        C  0.10056360  0.98232781  0.38253557     0.79800
N388        N  0.08076364  0.98019876  0.40492345    -0.78500
C389        C  0.07014588  0.00649366  0.41794381     0.82200
N390        N  0.07949632  0.03505033  0.40830614    -0.78500
C391        C  0.09869464  0.03724485  0.38523287     0.82300
N392        N  0.10879677  0.01081590  0.37280771    -0.80200
O393        O  0.21307708  0.28350403  0.19044489    -0.81300
O394        O  0.31053412  0.22863488  0.26641133    -0.66000
O395        O  0.24005539  0.23855848  0.22568358    -1.12600
C396        C  0.22088518  0.30391115  0.31032527     1.05600
O397        O  0.28683857  0.21828261  0.30862747    -0.79200
O398        O  0.23146672  0.22862345  0.31949405    -0.66800
Ni399      Ni  0.23735031  0.24834504  0.18399160     1.34900
C400        C  0.21080570  0.22068756  0.30264044     0.84300
O401        O  0.29006091  0.20561638  0.21392920    -0.79800
O402        O  0.26119603  0.21399113  0.17415446    -0.90000
C403        C  0.30890041  0.21560896  0.29225032     0.83900
O404        O  0.26885604  0.27598672  0.18092458    -0.68200
O405        O  0.24205574  0.29113761  0.32322578    -0.87500
C406        C  0.29044909  0.28200871  0.19709506     0.84700
C407        C  0.28191830  0.20011546  0.18675474     1.06300
H408        H  0.27078620  0.28283705  0.26968012     0.38100
O409        O  0.26126108  0.26314449  0.27259147    -1.10200
O410        O  0.20702543  0.23244488  0.27632027    -0.66800
Ni411      Ni  0.22494531  0.26692571  0.25464563     1.26300
O412        O  0.29507267  0.26847360  0.22242065    -0.67100
O413        O  0.21124280  0.29568407  0.28446197    -0.79400
C414        C  0.19123148  0.28541188  0.20719132     0.84100
O415        O  0.19037024  0.27221991  0.23294004    -0.66500
Ni416      Ni  0.26409771  0.25481227  0.31456028     1.27400
Ni417      Ni  0.27632262  0.23438781  0.24394356     1.26100
H418        H  0.23042032  0.21884646  0.22807225     0.38600
C419        C  0.97368926  0.39830474  0.11647115     0.79800
N420        N  0.97532366  0.41807522  0.09243102    -0.78500
C421        C  0.00113478  0.42769484  0.08202161     0.82200
N422        N  0.02520650  0.41747097  0.09575101    -0.78500
C423        C  0.02359898  0.39761832  0.11965426     0.82300
N424        N  0.99785946  0.38842954  0.12963598    -0.80200
C425        C  0.38762399  0.09322157  0.97594335     0.79800
N426        N  0.37544953  0.09606412  0.00360523    -0.78500
C427        C  0.38909013  0.08705490  0.02910054     0.82200
N428        N  0.41515587  0.07421496  0.02689981    -0.78500
C429        C  0.42703283  0.06995372  0.99910448     0.82300
N430        N  0.41339698  0.07971474  0.97373577    -0.80200
C431        C  0.52180551  0.09620682  0.38456684     0.79800
N432        N  0.49735832  0.10475484  0.37101637    -0.78500
C433        C  0.47186261  0.09743305  0.38310316     0.82200
N434        N  0.47076957  0.08039529  0.40906401    -0.78500
C435        C  0.49512967  0.07077535  0.42263235     0.82300
N436        N  0.52065268  0.07909194  0.41052118    -0.80200
C437        C  0.89275177  0.96453994  0.38425256     0.79800
N438        N  0.88315349  0.99135538  0.37238631    -0.78500
C439        C  0.89186123  0.01939394  0.38271986     0.82200
N440        N  0.91140257  0.02058873  0.40552666    -0.78500
C441        C  0.92188517  0.99374681  0.41764521     0.82300
N442        N  0.91209052  0.96563886  0.40727422    -0.80200
C443        C  0.60813218  0.12457694  0.02265881     0.79800
N444        N  0.61906594  0.13606260  0.99647199    -0.78500
C445        C  0.60778506  0.12838201  0.96912149     0.82200
N446        N  0.58473341  0.10935127  0.96814651    -0.78500
C447        C  0.57326801  0.09799893  0.99416233     0.82300
N448        N  0.58520757  0.10542691  0.02129394    -0.80200
C449        C  0.61021035  0.51955465  0.11530217     0.79800
N450        N  0.61740843  0.49192559  0.12760050    -0.78500
C451        C  0.60871075  0.46471051  0.11532598     0.82200
N452        N  0.59162976  0.46502408  0.09045848    -0.78500
C453        C  0.58308051  0.49262393  0.07848269     0.82300
N454        N  0.59281196  0.51988149  0.09062570    -0.80200
C455        C  0.89479098  0.39647781  0.52579525     0.79800
N456        N  0.92068354  0.40993832  0.52275780    -0.78500
C457        C  0.93161711  0.41558645  0.49477576     0.82200
N458        N  0.91705871  0.40611906  0.46969614    -0.78500
C459        C  0.89095124  0.39297679  0.47248255     0.82300
N460        N  0.87999895  0.38846049  0.50056274    -0.80200
C461        C  0.40721720  0.51380016  0.11127957     0.79800
N462        N  0.42569080  0.51447666  0.08751519    -0.78500
C463        C  0.43494880  0.48736677  0.07480660     0.82200
N464        N  0.42511580  0.45956316  0.08570451    -0.78500
C465        C  0.40680978  0.45884220  0.10961361     0.82300
N466        N  0.39833579  0.48593335  0.12205024    -0.80200
C467        C  0.98316363  0.61848497  0.11945623     0.79800
N468        N  0.98457731  0.59687278  0.09705128    -0.78500
C469        C  0.01000914  0.58909575  0.08490930     0.82200
N470        N  0.03414292  0.60309277  0.09519815    -0.78500
C471        C  0.03283324  0.62497356  0.11746547     0.82300
N472        N  0.00730793  0.63233214  0.12931196    -0.80200
C473        C  0.42785313  0.87346475  0.96874996     0.79800
N474        N  0.41969998  0.86000994  0.99500205    -0.78500
C475        C  0.42602765  0.87280788  0.02218058     0.82200
N476        N  0.44223643  0.89899707  0.02313282    -0.78500
C477        C  0.45165724  0.91211662  0.99688189     0.82300
N478        N  0.44365340  0.89992683  0.96963416    -0.80200
C479        C  0.51999912  0.88270521  0.38955991     0.79800
N480        N  0.49613918  0.86989131  0.37778485    -0.78500
C481        C  0.47035689  0.87701073  0.38917997     0.82200
N482        N  0.46846561  0.89792208  0.41225541    -0.78500
C483        C  0.49245003  0.91035247  0.42463695     0.82300
N484        N  0.51817125  0.90252304  0.41335849    -0.80200
C485        C  0.08157736  0.63260421  0.53094528     0.79800
N486        N  0.09410949  0.64533168  0.50631636    -0.78500
C487        C  0.09072484  0.63273459  0.47841503     0.82200
N488        N  0.07325904  0.60771255  0.47500367    -0.78500
C489        C  0.05990539  0.59529282  0.49956505     0.82300
N490        N  0.06480151  0.60718206  0.52764323    -0.80200
C491        C  0.63480880  0.92185950  0.97305837     0.90600
N492        N  0.60835666  0.93373710  0.97364253    -0.78500
C493        C  0.59597545  0.94096697  0.00043971     0.82200
N494        N  0.60970069  0.93528112  0.02694206    -0.78500
C495        C  0.63610751  0.92301898  0.02653829     0.82300
N496        N  0.64855184  0.91676511  0.99954578    -0.80200
C497        C  0.11636169  0.41727587  0.52568125     0.79800
N498        N  0.13095945  0.41128437  0.49990541    -0.78500
C499        C  0.11955797  0.41693040  0.47222352     0.82200
N500        N  0.09346416  0.42985822  0.47051770    -0.78500
C501        C  0.07889979  0.43668053  0.49624701     0.82300
N502        N  0.09015139  0.42980550  0.52382138    -0.80200
C503        C  0.98187443  0.40230254  0.88777891     0.79800
N504        N  0.98345058  0.42111545  0.91258087    -0.78500
C505        C  0.00920608  0.43047132  0.92349585     0.82200
N506        N  0.03335822  0.42031298  0.90993201    -0.78500
C507        C  0.03182046  0.40173199  0.88503369     0.82300
N508        N  0.00612900  0.39318255  0.87419535    -0.80200
C509        C  0.09380284  0.97842621  0.61768306     0.79800
N510        N  0.10388110  0.00596759  0.62809910    -0.78500
C511        C  0.09837390  0.03310653  0.61383040     0.82200
N512        N  0.08141080  0.03269609  0.58869171    -0.78500
C513        C  0.07037128  0.00523556  0.57812582     0.82300
N514        N  0.07703169  0.97808782  0.59249306    -0.80200
C515        C  0.52995126  0.10512557  0.61224114     0.79800
N516        N  0.50621010  0.11505728  0.62629973    -0.78500
C517        C  0.48034096  0.10356399  0.61892046     0.82200
N518        N  0.47823292  0.08194164  0.59653595    -0.78500
C519        C  0.50185247  0.07185252  0.58196927     0.82300
N520        N  0.52781254  0.08315162  0.59015537    -0.80200
C521        C  0.41546283  0.51621422  0.87616386     0.79800
N522        N  0.43183919  0.51645846  0.90161288    -0.78500
C523        C  0.43915905  0.48924188  0.91535196     0.82200
N524        N  0.42869170  0.46177099  0.90428745    -0.78500
C525        C  0.41207374  0.46141076  0.87890329     0.82300
N526        N  0.40626120  0.48865281  0.86484039    -0.80200
C527        C  0.89566169  0.97992780  0.61520556     0.79800
N528        N  0.88840185  0.00808379  0.62611610    -0.78500
C529        C  0.89698663  0.03469934  0.61269467     0.82200
N530        N  0.91386372  0.03324324  0.58772238    -0.78500
C531        C  0.92225760  0.00506478  0.57682537     0.82300
N532        N  0.91285477  0.97841677  0.59045147    -0.80200
C533        C  0.99130668  0.62594636  0.89807389     0.79800
N534        N  0.99265187  0.60102708  0.91684182    -0.78500
C535        C  0.01817525  0.59065451  0.92676371     0.82200
N536        N  0.04247071  0.60436689  0.91663480    -0.78500
C537        C  0.04116645  0.62921716  0.89760690     0.82300
N538        N  0.01555140  0.64014860  0.88910768    -0.80200
C539        C  0.52512943  0.88286930  0.61881505     0.79800
N540        N  0.52370058  0.90326167  0.59531825    -0.78500
C541        C  0.49816382  0.91074436  0.58305752     0.82200
N542        N  0.47402863  0.89757050  0.59422499    -0.78500
C543        C  0.47534877  0.87700851  0.61760717     0.82300
N544        N  0.50091384  0.87009902  0.62968455    -0.80200
C545        C  0.61648223  0.53294747  0.88864870     0.79800
N546        N  0.62708973  0.50691243  0.87612136    -0.78500
C547        C  0.61875050  0.47832022  0.88521984     0.82200
N548        N  0.59865555  0.47576543  0.90726368    -0.78500
C549        C  0.58738985  0.50178511  0.92009116     0.82300
N550        N  0.59670157  0.53047988  0.91103394    -0.80200
C551        C  0.87602954  0.59224812  0.52830124     0.79800
N552        N  0.90209457  0.57927571  0.52596119    -0.78500
C553        C  0.91315887  0.57284849  0.49817767     0.82200
N554        N  0.89819478  0.57971408  0.47270354    -0.78500
C555        C  0.87216600  0.59266813  0.47487067     0.82300
N556        N  0.86133358  0.59863899  0.50268989    -0.80200
C557        C  0.20829322  0.36991240  0.36470240    -0.11300
C558        C  0.17859837  0.36947822  0.36718330     0.05900
C559        C  0.16294826  0.35040610  0.34725401    -0.10000
C560        C  0.17675589  0.33049451  0.32710823    -0.11700
C561        C  0.20640943  0.32891304  0.32692954    -0.01500
C562        C  0.22204578  0.34951788  0.34512144    -0.10600
C563        C  0.16442400  0.38548567  0.39293832     0.05900
H564        H  0.14009729  0.34928105  0.34856913     0.07800
H565        H  0.16425749  0.31481979  0.31320979     0.11300
H566        H  0.24496106  0.34913559  0.34489191     0.11500
H567        H  0.22100773  0.38502159  0.37893806     0.07800
C568        C  0.17746806  0.38598036  0.42160640    -0.11300
C569        C  0.16317622  0.39712849  0.44694460    -0.10600
C570        C  0.13532170  0.40802246  0.44448316    -0.01500
C571        C  0.12259086  0.40886170  0.41565037    -0.11700
C572        C  0.13698873  0.39768279  0.39013849    -0.10100
H573        H  0.19832471  0.37633665  0.42490480     0.07800
H574        H  0.17379364  0.39632423  0.46869502     0.11500
H575        H  0.10122826  0.41732341  0.41290517     0.11300
H576        H  0.12643427  0.39804684  0.36834857     0.07800
C577        C  0.37462039  0.40231316  0.16609061    -0.11300
C578        C  0.36626385  0.37727965  0.14762307     0.05900
C579        C  0.37375491  0.37818097  0.11662900    -0.10000
C580        C  0.38835229  0.40383497  0.10434214    -0.11700
C581        C  0.39545066  0.42938406  0.12266684    -0.01500
C582        C  0.38880575  0.42802033  0.15376285    -0.10600
C583        C  0.34813135  0.35160106  0.16023316     0.05900
H584        H  0.36794539  0.35920646  0.10172556     0.07800
H585        H  0.39294243  0.40428703  0.08029947     0.11300
H586        H  0.39400001  0.44733073  0.16854045     0.11500
H587        H  0.36906005  0.40273269  0.18988833     0.07800
C588        C  0.35213664  0.33997038  0.18984872    -0.11300
C589        C  0.33382016  0.31719378  0.20197513    -0.10600
C590        C  0.31084484  0.30570745  0.18489955    -0.01500
C591        C  0.30723017  0.31710938  0.15517958    -0.11700
C592        C  0.32551536  0.33957464  0.14309015    -0.10100
H593        H  0.36948704  0.34846124  0.20366879     0.07800
H594        H  0.33746096  0.30886226  0.22478947     0.11500
H595        H  0.28999223  0.30881911  0.14107600     0.11300
H596        H  0.32137928  0.34817143  0.12047031     0.07800
C597        C  0.42387179  0.13278832  0.32397375    -0.11300
C598        C  0.39948736  0.13979625  0.34082739     0.05900
C599        C  0.39829691  0.12994968  0.37135108    -0.10000
C600        C  0.42115991  0.11464072  0.38479193    -0.11700
C601        C  0.44600833  0.10945217  0.36828618    -0.01500
C602        C  0.44688104  0.11818369  0.33759516    -0.10600
C603        C  0.37601140  0.15823729  0.32702059     0.05900
H604        H  0.38022177  0.13511322  0.38542999     0.07800
H605        H  0.41989668  0.10825913  0.40849543     0.11300
H606        H  0.46560099  0.11405450  0.32407951     0.11500
H607        H  0.42545782  0.13879798  0.30023061     0.07800
C608        C  0.38139441  0.18012289  0.30385345    -0.11300
C609        C  0.35957445  0.19823424  0.29187696    -0.10600
C610        C  0.33199067  0.19549008  0.30327759    -0.01500
C611        C  0.32647484  0.17351074  0.32607621    -0.11700
C612        C  0.34805094  0.15489885  0.33749642    -0.10100
H613        H  0.40259490  0.18405240  0.29542618     0.07800
H614        H  0.36445885  0.21503354  0.27436136     0.11500
H615        H  0.30530893  0.17050691  0.33505101     0.11300
H616        H  0.34261768  0.13784273  0.35453375     0.07800
C617        C  0.37565354  0.12288471  0.10571027    -0.11300
C618        C  0.34607027  0.11942541  0.10770885     0.05900
C619        C  0.33204237  0.10059129  0.08636017    -0.10000
C620        C  0.34670898  0.08802885  0.06193084    -0.11700
C621        C  0.37580388  0.09352442  0.05858704    -0.01500
C622        C  0.39047449  0.10986325  0.08131007    -0.10600
C623        C  0.32925127  0.13839035  0.12919074     0.05900
H624        H  0.30937270  0.09696995  0.08766494     0.07800
H625        H  0.33503782  0.07531958  0.04472519     0.11300
H626        H  0.41290153  0.11461410  0.07895041     0.11500
H627        H  0.38698849  0.13740373  0.12174926     0.07800
C628        C  0.33745760  0.14266206  0.15957944    -0.11300
C629        C  0.32169560  0.16191796  0.17883706    -0.10600
C630        C  0.29759950  0.17739265  0.16791518    -0.01500
C631        C  0.28943974  0.17270365  0.13757088    -0.11700
C632        C  0.30503959  0.15360064  0.11854065    -0.10100
H633        H  0.35605012  0.13119884  0.16836647     0.07800
H634        H  0.32865758  0.16512802  0.20203189     0.11500
H635        H  0.27124724  0.18439001  0.12812015     0.11300
H636        H  0.29851742  0.15142020  0.09508139     0.07800
C637        C  0.10029251  0.38087345  0.13986092    -0.11300
C638        C  0.09713017  0.35811606  0.16260807     0.05900
C639        C  0.06968646  0.35001273  0.17199177    -0.10000
C640        C  0.04611240  0.36346548  0.15846556    -0.11700
C641        C  0.04917790  0.38524645  0.13488700    -0.01500
C642        C  0.07657207  0.39417749  0.12604130    -0.10600
C643        C  0.12202658  0.34125745  0.17505024     0.05900
H644        H  0.06623851  0.33232425  0.18902138     0.07800
H645        H  0.02537595  0.35604524  0.16609907     0.11300
H646        H  0.07970003  0.41113808  0.10823825     0.11500
H647        H  0.12111459  0.38823240  0.13248129     0.07800
C648        C  0.14505468  0.33429713  0.15619191    -0.11300
C649        C  0.16745563  0.31645709  0.16685824    -0.10600
C650        C  0.16738130  0.30473834  0.19660321    -0.01500
C651        C  0.14466884  0.31201972  0.21575330    -0.11700
C652        C  0.12231044  0.33022355  0.20514877    -0.10100
H653        H  0.14544815  0.34176046  0.13277626     0.07800
H654        H  0.18464945  0.31135839  0.15147643     0.11500
H655        H  0.14418409  0.30370257  0.23891258     0.11300
H656        H  0.10522478  0.33557224  0.22055983     0.07800
C657        C  0.15232564  0.15860691  0.30791942    -0.11300
C658        C  0.15435411  0.14892006  0.33842432     0.05900
C659        C  0.17426504  0.16405687  0.35708578    -0.10000
C660        C  0.19213100  0.18736887  0.34546473    -0.11700
C661        C  0.19059804  0.19661868  0.31480155    -0.01500
C662        C  0.17006480  0.18219339  0.29632312    -0.10600
C663        C  0.13735471  0.12176086  0.35012558     0.05900
H664        H  0.17676307  0.15713562  0.38052234     0.07800
H665        H  0.20746871  0.19794776  0.36059943     0.11300
H666        H  0.16805506  0.18869490  0.27271809     0.11500
H667        H  0.13706281  0.14777335  0.29287594     0.07800
C668        C  0.12617261  0.12105321  0.37984583    -0.11300
C669        C  0.11221715  0.09434242  0.39110830    -0.10600
C670        C  0.10956279  0.06752906  0.37308625    -0.01500
C671        C  0.12003503  0.06870677  0.34319986    -0.11700
C672        C  0.13354447  0.09530624  0.33190619    -0.10100
H673        H  0.12848479  0.14106118  0.39451514     0.07800
H674        H  0.10455679  0.09425161  0.41423299     0.11500
H675        H  0.11834347  0.04861128  0.32853251     0.11300
H676        H  0.14205590  0.09463798  0.30914235     0.07800
C677        C  0.86714047  0.37243776  0.39257041    -0.11300
C678        C  0.83749006  0.37222904  0.39576201     0.05900
C679        C  0.82587556  0.38151772  0.42364617    -0.10000
C680        C  0.84332443  0.38860385  0.44826704    -0.11700
C681        C  0.87289989  0.38732727  0.44552766    -0.01500
C682        C  0.88467976  0.38014834  0.41718056    -0.10600
C683        C  0.81889065  0.35863616  0.37177387     0.05900
H684        H  0.80317401  0.38243528  0.42675037     0.07800
H685        H  0.83358526  0.39481566  0.46962089     0.11300
H686        H  0.90741908  0.37917695  0.41440638     0.11500
H687        H  0.87683938  0.36513251  0.37155287     0.07800
C688        C  0.82482158  0.36214436  0.34060679    -0.11300
C689        C  0.80943369  0.34516842  0.31878500    -0.10600
C690        C  0.78814956  0.32432222  0.32797198    -0.01500
C691        C  0.78114298  0.32241516  0.35879816    -0.11700
C692        C  0.79623581  0.33928370  0.38036837    -0.10100
H693        H  0.84193122  0.37715490  0.33321180     0.07800
H694        H  0.81533242  0.34683039  0.29511964     0.11500
H695        H  0.76480281  0.30648037  0.36644353     0.11300
H696        H  0.79120933  0.33549921  0.40401777     0.07800
C697        C  0.66804627  0.33104742  0.15760577    -0.11300
C698        C  0.66772304  0.36138589  0.16927034     0.05900
C699        C  0.68590888  0.36855268  0.19376040    -0.10000
C700        C  0.70416371  0.34618115  0.20585453    -0.11700
C701        C  0.70494251  0.31613309  0.19358223    -0.01500
C702        C  0.68643305  0.30883259  0.16948313    -0.10600
C703        C  0.64926988  0.38571220  0.15544065     0.05900
H704        H  0.68675189  0.39178702  0.20305088     0.07800
H705        H  0.71835330  0.35273455  0.22409998     0.11300
H706        H  0.68632692  0.28587568  0.15948164     0.11500
H707        H  0.65410678  0.32438188  0.13919441     0.07800
C708        C  0.64406689  0.38653310  0.12390232    -0.11300
C709        C  0.62905546  0.41114252  0.11078511    -0.10600
C710        C  0.61931299  0.43560223  0.12887767    -0.01500
C711        C  0.62323657  0.43402362  0.16041105    -0.11700
C712        C  0.63774630  0.40930380  0.17354394    -0.10100
H713        H  0.65273592  0.36898206  0.10910202     0.07800
H714        H  0.62658128  0.41199107  0.08638565     0.11500
H715        H  0.61569945  0.45248871  0.17491853     0.11300
H716        H  0.64045391  0.40908567  0.19791012     0.07800
C717        C  0.63003106  0.11915978  0.10568125    -0.11300
C718        C  0.65602816  0.13516857  0.10535347     0.05900
C719        C  0.66507036  0.14917255  0.07826438    -0.10000
C720        C  0.64911197  0.14637964  0.05182598    -0.11700
C721        C  0.62360884  0.12941320  0.05164541    -0.01500
C722        C  0.61402553  0.11614132  0.07899939    -0.10600
C723        C  0.67376754  0.13851704  0.13296419     0.05900
H724        H  0.68457921  0.16250524  0.07752861     0.07800
H725        H  0.65709109  0.15721968  0.03138327     0.11300
H726        H  0.59439031  0.10306195  0.07971548     0.11500
H727        H  0.62242963  0.10845444  0.12635689     0.07800
C728        C  0.66198612  0.14850060  0.16052071    -0.11300
C729        C  0.67959485  0.15959271  0.18378252    -0.10600
C730        C  0.70902486  0.16076193  0.17961791    -0.01500
C731        C  0.72081011  0.14748455  0.15361519    -0.11700
C732        C  0.70333393  0.13618884  0.13057898    -0.10100
H733        H  0.63927778  0.15050191  0.16297617     0.07800
H734        H  0.67013553  0.17035029  0.20349200     0.11500
H735        H  0.74345075  0.14858059  0.14987073     0.11300
H736        H  0.71294900  0.12794116  0.10983442     0.07800
C737        C  0.86833171  0.10300151  0.36836068    -0.11300
C738        C  0.84990161  0.09903184  0.34337424     0.05900
C739        C  0.84711185  0.06926344  0.33079953    -0.10000
C740        C  0.86143389  0.04411129  0.34320892    -0.11700
C741        C  0.87906933  0.04762814  0.36880887    -0.01500
C742        C  0.88279573  0.07756952  0.38093256    -0.10600
C743        C  0.83199083  0.12491206  0.33154746     0.05900
H744        H  0.83289393  0.06499473  0.31197099     0.07800
H745        H  0.85803099  0.02157773  0.33291014     0.11300
H746        H  0.89628801  0.08121933  0.40048705     0.11500
H747        H  0.87132364  0.12570539  0.37842358     0.07800
C748        C  0.81973142  0.14628878  0.35158152    -0.11300
C749        C  0.80057354  0.16848506  0.34108637    -0.10600
C750        C  0.79297681  0.17001019  0.31020382    -0.01500
C751        C  0.80573499  0.14914820  0.28997770    -0.11700
C752        C  0.82504382  0.12698959  0.30048489    -0.10100
H753        H  0.82412245  0.14520015  0.37564652     0.07800
H754        H  0.79127849  0.18413575  0.35743004     0.11500
H755        H  0.80067992  0.14979484  0.26603663     0.11300
H756        H  0.83437347  0.11127430  0.28423198     0.07800
C757        C  0.63718896  0.17346188  0.35241204    -0.11300
C758        C  0.62380323  0.15077147  0.33451274     0.05900
C759        C  0.63375842  0.14563454  0.30489488    -0.10000
C760        C  0.65686265  0.16262952  0.29359480    -0.11700
C761        C  0.67030774  0.18534535  0.31159401    -0.01500
C762        C  0.66004806  0.19058439  0.34109874    -0.10600
C763        C  0.59877559  0.13365987  0.34647874     0.05900
H764        H  0.62381128  0.12826916  0.29058690     0.07800
H765        H  0.66418676  0.15794849  0.27080293     0.11300
H766        H  0.66972327  0.20793510  0.35562648     0.11500
H767        H  0.62963330  0.17836220  0.37507305     0.07800
C768        C  0.59853912  0.12198414  0.37629072    -0.11300
C769        C  0.57395233  0.10849902  0.38845697    -0.10600
C770        C  0.54902066  0.10683633  0.37115612    -0.01500
C771        C  0.54966003  0.11754960  0.34098692    -0.11700
C772        C  0.57424875  0.13063945  0.32876815    -0.10100
H773        H  0.61728855  0.12374638  0.39034207     0.07800
H774        H  0.57417261  0.10046055  0.41170631     0.11500
H775        H  0.53089703  0.11643714  0.32689403     0.11300
H776        H  0.57372155  0.13957337  0.30583095     0.07800
C777        C  0.89535797  0.37892717  0.12568338    -0.11300
C778        C  0.89562762  0.36201779  0.15299152     0.05900
C779        C  0.92132465  0.35831815  0.16837978    -0.10000
C780        C  0.94627004  0.37065148  0.15660652    -0.11700
C781        C  0.94632630  0.38715434  0.12905269    -0.01500
C782        C  0.92050385  0.39156214  0.11387647    -0.10600
C783        C  0.86981598  0.34646274  0.16484533     0.05900
H784        H  0.92232440  0.34498296  0.18915530     0.07800
H785        H  0.96566149  0.36678624  0.16909863     0.11300
H786        H  0.91982313  0.40414822  0.09265833     0.11500
H787        H  0.87574306  0.38219515  0.11342393     0.07800
C788        C  0.86402349  0.34640655  0.19611668    -0.11300
C789        C  0.84178829  0.32853028  0.20781097    -0.10600
C790        C  0.82493755  0.31017314  0.18848669    -0.01500
C791        C  0.83010626  0.31119120  0.15706212    -0.11700
C792        C  0.85226262  0.32918362  0.14538150    -0.10100
H793        H  0.87704600  0.35981659  0.21161080     0.07800
H794        H  0.83819466  0.32861545  0.23205472     0.11500
H795        H  0.81736770  0.29760312  0.14145375     0.11300
H796        H  0.85638680  0.32855798  0.12124476     0.07800
C797        C  0.16674876  0.70846959  0.37536736    -0.11300
C798        C  0.16393641  0.67684706  0.38255761     0.05900
C799        C  0.18062737  0.65515926  0.36719558    -0.10000
C800        C  0.19947905  0.66479302  0.34471475    -0.11700
C801        C  0.20184165  0.69633758  0.33686881    -0.01500
C802        C  0.18540885  0.71812205  0.35262477    -0.10600
C803        C  0.14398919  0.66642408  0.40635050     0.05900
H804        H  0.17914173  0.63070598  0.37266603     0.07800
H805        H  0.21167696  0.64735911  0.33296027     0.11300
H806        H  0.18658396  0.74256526  0.34704061     0.11500
H807        H  0.15403511  0.72563270  0.38688179     0.07800
C808        C  0.12611585  0.64065195  0.40154950    -0.11300
C809        C  0.10821068  0.63001931  0.42461853    -0.10600
C810        C  0.10801311  0.64487376  0.45297266    -0.01500
C811        C  0.12563558  0.67099722  0.45745758    -0.11700
C812        C  0.14333390  0.68168216  0.43439034    -0.10100
H813        H  0.12607398  0.62869540  0.37994685     0.07800
H814        H  0.09493053  0.60989081  0.42040830     0.11500
H815        H  0.12612178  0.68305370  0.47899834     0.11300
H816        H  0.15708657  0.70141145  0.43874529     0.07800
C817        C  0.42313907  0.81836189  0.34962189    -0.11300
C818        C  0.39814891  0.83522770  0.34495282     0.05900
C819        C  0.39672233  0.86570862  0.35654423    -0.10000
C820        C  0.41975105  0.87899953  0.37199970    -0.11700
C821        C  0.44489561  0.86235479  0.37566811    -0.01500
C822        C  0.44627944  0.83186203  0.36451645    -0.10600
C823        C  0.37402582  0.82142135  0.32743919     0.05900
H824        H  0.37810214  0.87970226  0.35295519     0.07800
H825        H  0.41828937  0.90268295  0.38004537     0.11300
H826        H  0.46538074  0.81841341  0.36729038     0.11500
H827        H  0.42490784  0.79467834  0.34171670     0.07800
C828        C  0.37885514  0.80135898  0.30272947    -0.11300
C829        C  0.35626802  0.78986378  0.28529188    -0.10600
C830        C  0.32834731  0.79848595  0.29187424    -0.01500
C831        C  0.32343418  0.81774121  0.31704649    -0.11700
C832        C  0.34591874  0.82887638  0.33469426    -0.10100
H833        H  0.40017084  0.79541120  0.29607873     0.07800
H834        H  0.36077969  0.77545291  0.26578763     0.11500
H835        H  0.30213412  0.82471355  0.32280107     0.11300
H836        H  0.34122214  0.84359416  0.35390236     0.07800
C837        C  0.38235242  0.81958594  0.07163403    -0.11300
C838        C  0.38013580  0.83661563  0.09861855     0.05900
C839        C  0.39511921  0.86490213  0.10121340    -0.10000
C840        C  0.41107827  0.87638222  0.07687556    -0.11700
C841        C  0.41237496  0.85971944  0.04956021    -0.01500
C842        C  0.39833488  0.83089002  0.04753790    -0.10600
C843        C  0.36093028  0.82557913  0.12305028     0.05900
H844        H  0.39420935  0.87837390  0.12190578     0.07800
H845        H  0.42163654  0.89865015  0.07913629     0.11300
H846        H  0.39894534  0.81729969  0.02689223     0.11500
H847        H  0.37081697  0.79801393  0.06857553     0.07800
C848        C  0.35755730  0.79366297  0.12902741    -0.11300
C849        C  0.33801415  0.78328875  0.15058894    -0.10600
C850        C  0.32167183  0.80463818  0.16688364    -0.01500
C851        C  0.32530161  0.83651035  0.16118637    -0.11700
C852        C  0.34457995  0.84684034  0.13945162    -0.10100
H853        H  0.37010388  0.77665263  0.11711889     0.07800
H854        H  0.33593367  0.75860502  0.15472244     0.11500
H855        H  0.31295844  0.85357269  0.17329038     0.11300
H856        H  0.34614324  0.87149230  0.13500959     0.07800
C857        C  0.13547799  0.70804347  0.18519552    -0.11300
C858        C  0.13258134  0.67690006  0.17582830     0.05900
C859        C  0.15344327  0.65566230  0.18452981    -0.10000
C860        C  0.17650112  0.66511877  0.20209797    -0.11700
C861        C  0.17945327  0.69614885  0.21164962    -0.01500
C862        C  0.15867789  0.71757318  0.20290725    -0.10600
C863        C  0.10737569  0.66589344  0.15838023     0.05900
H864        H  0.15162795  0.63139795  0.17840818     0.07800
H865        H  0.19191512  0.64783420  0.20846669     0.11300
H866        H  0.16024991  0.74162361  0.20987176     0.11500
H867        H  0.11986042  0.72507405  0.17876222     0.07800
C868        C  0.08028740  0.67695533  0.16535258    -0.11300
C869        C  0.05631152  0.66418870  0.15141419    -0.10600
C870        C  0.05872370  0.63999270  0.13008497    -0.01500
C871        C  0.08587112  0.62980657  0.12212615    -0.11700
C872        C  0.10990708  0.64262842  0.13609107    -0.10100
H873        H  0.07745965  0.69461969  0.18252365     0.07800
H874        H  0.03577180  0.67288634  0.15797209     0.11500
H875        H  0.08854704  0.61142951  0.10565272     0.11300
H876        H  0.13051133  0.63397750  0.12973199     0.07800
C877        C  0.32562324  0.61079308  0.18084459    -0.11300
C878        C  0.35205538  0.61885873  0.16852655     0.05900
C879        C  0.36118295  0.65000438  0.17079600    -0.10000
C880        C  0.34450469  0.67219823  0.18600717    -0.11700
C881        C  0.31830347  0.66364426  0.19891486    -0.01500
C882        C  0.30912941  0.63267051  0.19575091    -0.10600
C883        C  0.36974667  0.59390574  0.15468310     0.05900
H884        H  0.38144922  0.65697404  0.16151377     0.07800
H885        H  0.35212613  0.69588565  0.18778473     0.11300
H886        H  0.28907561  0.62502358  0.20508297     0.11500
H887        H  0.31759185  0.58725895  0.17901986     0.07800
C888        C  0.37106636  0.56493734  0.16912582    -0.11300
C889        C  0.38402499  0.53973631  0.15522930    -0.10600
C890        C  0.39646173  0.54247214  0.12637639    -0.01500
C891        C  0.39670278  0.57189577  0.11242111    -0.11700
C892        C  0.38344605  0.59743284  0.12648768    -0.10100
H893        H  0.36141392  0.56150784  0.19114164     0.07800
H894        H  0.38379060  0.51775171  0.16710330     0.11500
H895        H  0.40613741  0.57488149  0.09025146     0.11300
H896        H  0.38283745  0.61948604  0.11477517     0.07800
C897        C  0.16452306  0.88561724  0.29069533    -0.11300
C898        C  0.15322145  0.87882298  0.31945986     0.05900
C899        C  0.15693248  0.84872195  0.33120869    -0.10000
C900        C  0.17307351  0.82669355  0.31530166    -0.11700
C901        C  0.18590974  0.83452509  0.28753897    -0.01500
C902        C  0.18084075  0.86393835  0.27515042    -0.10600
C903        C  0.13981739  0.90415528  0.33756705     0.05900
H904        H  0.14860084  0.84274050  0.35331411     0.07800
H905        H  0.17688470  0.80425362  0.32549925     0.11300
H906        H  0.19025470  0.87052169  0.25369298     0.11500
H907        H  0.16148621  0.90821967  0.28053983     0.07800
C908        C  0.15202382  0.93395605  0.33709987    -0.11300
C909        C  0.13941415  0.95864724  0.35220767    -0.10600
C910        C  0.11414623  0.95455288  0.36861679    -0.01500
C911        C  0.10230931  0.92449673  0.37024464    -0.11700
C912        C  0.11505746  0.89949466  0.35485483    -0.10100
H913        H  0.17151432  0.93830991  0.32488194     0.07800
H914        H  0.14958986  0.98119746  0.35080846     0.11500
H915        H  0.08290347  0.92048855  0.38270663     0.11300
H916        H  0.10515900  0.87678061  0.35577778     0.07800
C917        C  0.81933794  0.63439237  0.34200300    -0.11300
C918        C  0.80573741  0.62603799  0.36924755     0.05900
C919        C  0.77652710  0.63159887  0.37199463    -0.10000
C920        C  0.76224986  0.64866770  0.35001299    -0.11700
C921        C  0.77655762  0.65944556  0.32425845    -0.01500
C922        C  0.80473839  0.65077009  0.31953773    -0.10600
C923        C  0.82233268  0.61551568  0.39607704     0.05900
H924        H  0.76501286  0.62443296  0.39203127     0.07800
H925        H  0.74043855  0.65507787  0.35398136     0.11300
H926        H  0.81619876  0.65920041  0.29990683     0.11500
H927        H  0.84175911  0.63057451  0.33898305     0.07800
C928        C  0.84701096  0.59766342  0.39299704    -0.11300
C929        C  0.86338291  0.59013229  0.41846922    -0.10600
C930        C  0.85527873  0.60011592  0.44752919    -0.01500
C931        C  0.83050124  0.61760738  0.45054410    -0.11700
C932        C  0.81443574  0.62537364  0.42525265    -0.10100
H933        H  0.85369659  0.58949940  0.37095335     0.07800
H934        H  0.88229830  0.57646516  0.41540859     0.11500
H935        H  0.82366838  0.62593994  0.47249436     0.11300
H936        H  0.79621455  0.64001858  0.42865452     0.07800
C937        C  0.67251809  0.63176748  0.19633888    -0.11300
C938        C  0.67005660  0.62646289  0.16488626     0.05900
C939        C  0.68646514  0.64476900  0.14515705    -0.10000
C940        C  0.70516786  0.66727399  0.15654353    -0.11700
C941        C  0.70815054  0.67200355  0.18799884    -0.01500
C942        C  0.69145684  0.65408499  0.20775262    -0.10600
C943        C  0.65219005  0.60041668  0.15291091     0.05900
H944        H  0.68555644  0.64106623  0.12089764     0.07800
H945        H  0.71774001  0.68060182  0.14061961     0.11300
H946        H  0.69292509  0.65740535  0.23204296     0.11500
H947        H  0.65986770  0.61852258  0.21223889     0.07800
C948        C  0.65096464  0.57222130  0.16876333    -0.11300
C949        C  0.63644592  0.54670687  0.15686576    -0.10600
C950        C  0.62271546  0.54834965  0.12858017    -0.01500
C951        C  0.62296055  0.57681888  0.11302089    -0.11700
C952        C  0.63762118  0.60258486  0.12503785    -0.10100
H953        H  0.66219861  0.56936000  0.18996472     0.07800
H954        H  0.63663148  0.52530484  0.16970666     0.11500
H955        H  0.61258187  0.57892718  0.09122923     0.11300
H956        H  0.63780979  0.62408291  0.11235960     0.07800
C957        C  0.68695011  0.87380607  0.15992871    -0.11300
C958        C  0.69290324  0.87035469  0.12884305     0.05900
C959        C  0.71060831  0.84615239  0.11952367    -0.10000
C960        C  0.72137668  0.82531097  0.14048840    -0.11700
C961        C  0.71486958  0.82811712  0.17138199    -0.01500
C962        C  0.69808435  0.85292257  0.18114696    -0.10600
C963        C  0.67921917  0.88988354  0.10546062     0.05900
H964        H  0.71519547  0.84242400  0.09575610     0.07800
H965        H  0.73437802  0.80644895  0.13237004     0.11300
H966        H  0.69270043  0.85540709  0.20487668     0.11500
H967        H  0.67339175  0.89230971  0.16770552     0.07800
C968        C  0.65010760  0.89624118  0.10686035    -0.11300
C969        C  0.63611724  0.90880264  0.08174773    -0.10600
C970        C  0.65103413  0.91493922  0.05485341    -0.01500
C971        C  0.68046798  0.91076518  0.05436836    -0.11700
C972        C  0.69442329  0.89860030  0.07944948    -0.10100
H973        H  0.63782294  0.88963699  0.12655915     0.07800
H974        H  0.61342415  0.91192449  0.08277034     0.11500
H975        H  0.69264125  0.91589247  0.03416833     0.11300
H976        H  0.71698804  0.89465891  0.07797712     0.07800
C977        C  0.65015593  0.84465765  0.34681354    -0.11300
C978        C  0.62362921  0.84412743  0.33225627     0.05900
C979        C  0.62136839  0.82916963  0.30388361    -0.10000
C980        C  0.64464586  0.81434319  0.29102699    -0.11700
C981        C  0.67046836  0.81335052  0.30661430    -0.01500
C982        C  0.67317011  0.82905408  0.33434702    -0.10600
C983        C  0.59810053  0.85728852  0.34731118     0.05900
H984        H  0.60134313  0.82757917  0.29207399     0.07800
H985        H  0.64200759  0.80217932  0.26969776     0.11300
H986        H  0.69304794  0.82891594  0.34660165     0.11500
H987        H  0.65314696  0.85666759  0.36813203     0.07800
C988        C  0.59552131  0.85724353  0.37919544    -0.11300
C989        C  0.57054213  0.86697195  0.39312925    -0.10600
C990        C  0.54740505  0.87599481  0.37546821    -0.01500
C991        C  0.55002540  0.87693840  0.34385864    -0.11700
C992        C  0.57524788  0.86824963  0.32994508    -0.10100
H993        H  0.61227105  0.84851856  0.39349736     0.07800
H994        H  0.56879578  0.86597834  0.41759691     0.11500
H995        H  0.53244014  0.88430880  0.32989674     0.11300
H996        H  0.57656822  0.86973295  0.30550982     0.07800
C997        C  0.86155422  0.90935152  0.32644847    -0.11300
C998        C  0.84962738  0.88583236  0.34454628     0.05900
C999        C  0.85514354  0.88661235  0.37605892    -0.10000
C1000       C  0.87103984  0.91097069  0.38913098    -0.11700
C1001       C  0.88154665  0.93518540  0.37100379    -0.01500
C1002       C  0.87703677  0.93371229  0.33950255    -0.10600
C1003       C  0.83056555  0.86158058  0.33073521     0.05900
H1004       H  0.84609187  0.86918762  0.39088106     0.07800
H1005       H  0.87365554  0.91182602  0.41351062     0.11300
H1006       H  0.88484834  0.95209990  0.32493600     0.11500
H1007       H  0.85850999  0.90932235  0.30212457     0.07800
C1008       C  0.81231180  0.86887523  0.30642748    -0.11300
C1009       C  0.79342605  0.84667101  0.29452462    -0.10600
C1010       C  0.79208570  0.81657038  0.30669760    -0.01500
C1011       C  0.81080389  0.80904959  0.33044210    -0.11700
C1012       C  0.82977451  0.83115137  0.34219985    -0.10100
H1013       H  0.81188396  0.89210792  0.29715805     0.07800
H1014       H  0.77925445  0.85340148  0.27641439     0.11500
H1015       H  0.81058008  0.78605534  0.34032151     0.11300
H1016       H  0.84378712  0.82434675  0.36040566     0.07800
C1017       C  0.90441911  0.62899053  0.13232857    -0.11300
C1018       C  0.90429087  0.64680949  0.15906047     0.05900
C1019       C  0.93008231  0.65407810  0.17318737    -0.10000
C1020       C  0.95555806  0.64450061  0.16043414    -0.11700
C1021       C  0.95583635  0.62716737  0.13337735    -0.01500
C1022       C  0.92995611  0.61910897  0.11967792    -0.10600
C1023       C  0.87765481  0.66003727  0.17084905     0.05900
H1024       H  0.93061191  0.66814422  0.19354114     0.07800
H1025       H  0.97509572  0.65102564  0.17168203     0.11300
H1026       H  0.92945233  0.60581142  0.09884494     0.11500
H1027       H  0.88474993  0.62300972  0.12105241     0.07800
C1028       C  0.85894673  0.67457393  0.15081420    -0.11300
C1029       C  0.83507339  0.68961599  0.16172646    -0.10600
C1030       C  0.82914521  0.69033156  0.19296898    -0.01500
C1031       C  0.84736429  0.67495389  0.21305924    -0.11700
C1032       C  0.87158695  0.66013385  0.20208562    -0.10100
H1033       H  0.86327415  0.67520218  0.12671376     0.07800
H1034       H  0.82132028  0.70094401  0.14556614     0.11500
H1035       H  0.84326744  0.67501330  0.23721129     0.11300
H1036       H  0.88568956  0.64893229  0.21797637     0.07800
C1037       C  0.37907699  0.38028432  0.87328926    -0.11300
C1038       C  0.36935025  0.37967554  0.84298823     0.05900
C1039       C  0.37581186  0.40524482  0.82441560    -0.10000
C1040       C  0.39044428  0.43106124  0.83598922    -0.11700
C1041       C  0.39934365  0.43216453  0.86647383    -0.01500
C1042       C  0.39400526  0.40612587  0.88484124    -0.10600
C1043       C  0.35102639  0.35362757  0.83127442     0.05900
H1044       H  0.36853935  0.40593469  0.80114806     0.07800
H1045       H  0.39430428  0.45057357  0.82106114     0.11300
H1046       H  0.40047080  0.40616184  0.90840160     0.11500
H1047       H  0.37487113  0.36088307  0.88823306     0.07800
C1048       C  0.35286636  0.34311836  0.80100157    -0.11300
C1049       C  0.33430390  0.32005479  0.78981957    -0.10600
C1050       C  0.31323580  0.30708669  0.80854379    -0.01500
C1051       C  0.31178750  0.31731006  0.83887140    -0.11700
C1052       C  0.33033547  0.34009519  0.85002308    -0.10100
H1053       H  0.36870479  0.35271353  0.78590608     0.07800
H1054       H  0.33622770  0.31267974  0.76644636     0.11500
H1055       H  0.29606035  0.30782742  0.85417882     0.11300
H1056       H  0.32785341  0.34775346  0.87323800     0.07800
C1057       C  0.38210000  0.17483101  0.70176863    -0.11300
C1058       C  0.38147694  0.16044123  0.67305799     0.05900
C1059       C  0.35708632  0.16375755  0.65508827    -0.10000
C1060       C  0.33427971  0.18139576  0.66522382    -0.11700
C1061       C  0.33526456  0.19644422  0.69352436    -0.01500
C1062       C  0.35935488  0.19273989  0.71179423    -0.10600
C1063       C  0.40669714  0.14372230  0.66108780     0.05900
H1064       H  0.35586302  0.15355849  0.63269659     0.07800
H1065       H  0.31600269  0.18361679  0.65057445     0.11300
H1066       H  0.36068289  0.20372685  0.73384277     0.11500
H1067       H  0.40020101  0.17233491  0.71658998     0.07800
C1068       C  0.43411782  0.15417895  0.66834772    -0.11300
C1069       C  0.45781455  0.14047038  0.65530566    -0.10600
C1070       C  0.45488603  0.11610388  0.63426548    -0.01500
C1071       C  0.42758490  0.10485596  0.62764814    -0.11700
C1072       C  0.40377342  0.11841126  0.64101362    -0.10100
H1073       H  0.43740177  0.17382787  0.68325681     0.07800
H1074       H  0.47847709  0.14971828  0.66115478     0.11500
H1075       H  0.42456466  0.08586835  0.61185689     0.11300
H1076       H  0.38306391  0.10918888  0.63537579     0.07800
C1077       C  0.12856623  0.11567443  0.62046390    -0.11300
C1078       C  0.14065383  0.11544154  0.64981939     0.05900
C1079       C  0.13737347  0.08835730  0.66724981    -0.10000
C1080       C  0.12308944  0.06232213  0.65566920    -0.11700
C1081       C  0.11151325  0.06226327  0.62617786    -0.01500
C1082       C  0.11414883  0.08948332  0.60883544    -0.10600
C1083       C  0.15756100  0.14260980  0.66183163     0.05900
H1084       H  0.14660969  0.08680158  0.68965364     0.07800
H1085       H  0.12148835  0.04191622  0.66989194     0.11300
H1086       H  0.10562002  0.09033563  0.58605990     0.11500
H1087       H  0.13021764  0.13614222  0.60636543     0.07800
C1088       C  0.15800864  0.15017529  0.69304757    -0.11300
C1089       C  0.17499745  0.17468762  0.70421277    -0.10600
C1090       C  0.19220781  0.19213615  0.68451574    -0.01500
C1091       C  0.19138457  0.18486764  0.65335302    -0.11700
C1092       C  0.17438990  0.16062986  0.64222235    -0.10100
H1093       H  0.14514755  0.13720279  0.70895407     0.07800
H1094       H  0.17511334  0.17954249  0.72830140     0.11500
H1095       H  0.20418723  0.19785774  0.63737078     0.11300
H1096       H  0.17514997  0.15549321  0.61822057     0.07800
C1097       C  0.10509741  0.36914684  0.87139886    -0.11300
C1098       C  0.10353658  0.36077248  0.84049841     0.05900
C1099       C  0.07903805  0.36847608  0.82415804    -0.10000
C1100       C  0.05624161  0.38268281  0.83856930    -0.11700
C1101       C  0.05744374  0.39004466  0.86960460    -0.01500
C1102       C  0.08235629  0.38383467  0.88574125    -0.10600
C1103       C  0.12679822  0.34303549  0.82569565     0.05900
H1104       H  0.07729949  0.36321959  0.80022567     0.07800
H1105       H  0.03741803  0.38757704  0.82543018     0.11300
H1106       H  0.08377286  0.38904134  0.90972043     0.11500
H1107       H  0.12345859  0.36331227  0.88486345     0.07800
C1108       C  0.15515311  0.34835712  0.83389605    -0.11300
C1109       C  0.17675736  0.33037475  0.82155685    -0.10600
C1110       C  0.17070989  0.30681678  0.80035143    -0.01500
C1111       C  0.14255742  0.30212695  0.79122532    -0.11700
C1112       C  0.12081470  0.31988217  0.80391678    -0.10100
H1113       H  0.16071591  0.36639130  0.84997317     0.07800
H1114       H  0.19831877  0.33489379  0.82875641     0.11500
H1115       H  0.13724958  0.28408295  0.77504784     0.11300
H1116       H  0.09921736  0.31476948  0.79730672     0.07800
C1117       C  0.12793692  0.38089189  0.60261683    -0.11300
C1118       C  0.15752734  0.38386293  0.60545220     0.05900
C1119       C  0.17218416  0.40252884  0.58445485    -0.10000
C1120       C  0.15831100  0.41476343  0.55933117    -0.11700
C1121       C  0.12927375  0.40957781  0.55513610    -0.01500
C1122       C  0.11385806  0.39390453  0.57768763    -0.10600
C1123       C  0.17373571  0.36433719  0.62715188     0.05900
H1124       H  0.19478701  0.40626532  0.58652319     0.07800
H1125       H  0.17051815  0.42730501  0.54248671     0.11300
H1126       H  0.09137713  0.38973601  0.57488211     0.11500
H1127       H  0.11597872  0.36673541  0.61838465     0.07800
C1128       C  0.16369753  0.35739511  0.65643946    -0.11300
C1129       C  0.17869202  0.33704778  0.67537164    -0.10600
C1130       C  0.20387311  0.32317415  0.66523452    -0.01500
C1131       C  0.21396023  0.33068719  0.63620038    -0.11700
C1132       C  0.19910479  0.35075394  0.61747408    -0.10100
H1133       H  0.14423710  0.36750514  0.66460526     0.07800
H1134       H  0.17029533  0.33170950  0.69761181     0.11500
H1135       H  0.23317643  0.32049753  0.62747168     0.11300
H1136       H  0.20715533  0.35474621  0.59483447     0.07800
C1137       C  0.30016802  0.14533799  0.87192882    -0.11300
C1138       C  0.32989459  0.14565388  0.87225335     0.05900
C1139       C  0.34443101  0.16108923  0.84879560    -0.10000
C1140       C  0.32942992  0.17757259  0.82665437    -0.11700
C1141       C  0.29974781  0.17905823  0.82790207    -0.01500
C1142       C  0.28530100  0.16203708  0.85019067    -0.10600
C1143       C  0.34520769  0.13193959  0.89837336     0.05900
H1144       H  0.36733520  0.16183091  0.84850130     0.07800
H1145       H  0.34105714  0.19073620  0.80980031     0.11300
H1146       H  0.26241928  0.16254305  0.85145588     0.11500
H1147       H  0.28833412  0.13295883  0.88916554     0.07800
C1148       C  0.33442736  0.13580978  0.92778409    -0.11300
C1149       C  0.34811376  0.12296337  0.95267366    -0.10600
C1150       C  0.37319641  0.10610308  0.94897043    -0.01500
C1151       C  0.38429500  0.10244107  0.91961007    -0.11700
C1152       C  0.37042784  0.11529893  0.89451595    -0.10100
H1153       H  0.31546942  0.14918677  0.93167845     0.07800
H1154       H  0.33905313  0.12659307  0.97491974     0.11500
H1155       H  0.40361430  0.08961555  0.91600494     0.11300
H1156       H  0.37919823  0.11188642  0.87210910     0.07800
C1157       C  0.88417350  0.38568787  0.61053552    -0.11300
C1158       C  0.85450920  0.38305532  0.61227916     0.05900
C1159       C  0.83845024  0.38724953  0.58582406    -0.10000
C1160       C  0.85165625  0.39221868  0.55801015    -0.11700
C1161       C  0.88128328  0.39352441  0.55592586    -0.01500
C1162       C  0.89745344  0.39118666  0.58259838    -0.10600
C1163       C  0.84022302  0.37131432  0.64000273     0.05900
H1164       H  0.81562742  0.38487959  0.58627316     0.07800
H1165       H  0.83857585  0.39439974  0.53795855     0.11300
H1166       H  0.92033673  0.39232332  0.58167328     0.11500
H1167       H  0.89706879  0.38255669  0.63059866     0.07800
C1168       C  0.85072349  0.34474580  0.65444259    -0.11300
C1169       C  0.83365325  0.32794722  0.67445860    -0.10600
C1170       C  0.80607236  0.33774642  0.68086225    -0.01500
C1171       C  0.79650430  0.36589669  0.66894709    -0.11700
C1172       C  0.81348732  0.38259627  0.64857986    -0.10100
H1173       H  0.87105908  0.33530567  0.64814466     0.07800
H1174       H  0.84124386  0.30608854  0.68332059     0.11500
H1175       H  0.77515240  0.37360743  0.67342423     0.11300
H1176       H  0.80497908  0.40316141  0.63794283     0.07800
C1177       C  0.68427697  0.37441713  0.79824567    -0.11300
C1178       C  0.67476652  0.37342697  0.82854135     0.05900
C1179       C  0.68287059  0.34824846  0.84668688    -0.10000
C1180       C  0.70100155  0.32555384  0.83540821    -0.11700
C1181       C  0.71174916  0.32741782  0.80567877    -0.01500
C1182       C  0.70263863  0.35176297  0.78698907    -0.10600
C1183       C  0.65863951  0.39975574  0.84198075     0.05900
H1184       H  0.67629576  0.34673917  0.87013708     0.07800
H1185       H  0.70730170  0.30700950  0.85046744     0.11300
H1186       H  0.71014624  0.35369936  0.76387830     0.11500
H1187       H  0.67794931  0.39305742  0.78332880     0.07800
C1188       C  0.66515802  0.43032657  0.83339438    -0.11300
C1189       C  0.65197427  0.45538753  0.84732478    -0.10600
C1190       C  0.63182325  0.45083668  0.87045591    -0.01500
C1191       C  0.62493511  0.42028871  0.87894124    -0.11700
C1192       C  0.63815694  0.39501683  0.86481136    -0.10100
H1193       H  0.68120384  0.43508950  0.81650156     0.07800
H1194       H  0.65800916  0.47849637  0.84006234     0.11500
H1195       H  0.60950519  0.41590820  0.89657703     0.11300
H1196       H  0.63236967  0.37176933  0.87184016     0.07800
C1197       C  0.86401669  0.11441516  0.61987631    -0.11300
C1198       C  0.85729022  0.11512345  0.65108756     0.05900
C1199       C  0.86733539  0.09103100  0.66955978    -0.10000
C1200       C  0.88159603  0.06590133  0.65701129    -0.11700
C1201       C  0.88685258  0.06431357  0.62569842    -0.01500
C1202       C  0.87884865  0.08933094  0.60734537    -0.10600
C1203       C  0.83857810  0.13964111  0.66416264     0.05900
H1204       H  0.86364573  0.09111831  0.69376512     0.07800
H1205       H  0.88784874  0.04710786  0.67182055     0.11300
H1206       H  0.88246236  0.08859634  0.58311743     0.11500
H1207       H  0.85660466  0.13237820  0.60476967     0.07800
C1208       C  0.83843659  0.16990461  0.65227390    -0.11300
C1209       C  0.81963501  0.19210551  0.66341009    -0.10600
C1210       C  0.80069629  0.18484048  0.68703709    -0.01500
C1211       C  0.80139133  0.15500608  0.69964954    -0.11700
C1212       C  0.81986135  0.13262536  0.68818016    -0.10100
H1213       H  0.85280411  0.17652743  0.63428411     0.07800
H1214       H  0.81984630  0.21502976  0.65336006     0.11500
H1215       H  0.78693114  0.14859490  0.71765504     0.11300
H1216       H  0.81872312  0.10948898  0.69761284     0.07800
C1217       C  0.64140724  0.19407734  0.64136962    -0.11300
C1218       C  0.63326851  0.16502517  0.65304506     0.05900
C1219       C  0.64874454  0.15254562  0.67732906    -0.10000
C1220       C  0.67132997  0.16929041  0.69025250    -0.11700
C1221       C  0.67920348  0.19857787  0.67876267    -0.01500
C1222       C  0.66420029  0.21052414  0.65389499    -0.10600
C1223       C  0.60746945  0.14913767  0.64119305     0.05900
H1224       H  0.64281300  0.13030107  0.68690312     0.07800
H1225       H  0.68267912  0.15930468  0.70918207     0.11300
H1226       H  0.66974315  0.23293843  0.64443903     0.11500
H1227       H  0.62996822  0.20417943  0.62255948     0.07800
C1228       C  0.58253349  0.16618085  0.63738530    -0.11300
C1229       C  0.55774522  0.15175263  0.62732508    -0.10600
C1230       C  0.55727305  0.11997823  0.62029126    -0.01500
C1231       C  0.58230446  0.10285021  0.62330914    -0.11700
C1232       C  0.60717189  0.11726397  0.63406776    -0.10100
H1233       H  0.58201300  0.19064615  0.64296769     0.07800
H1234       H  0.53874323  0.16549776  0.62523525     0.11500
H1235       H  0.58237048  0.07824070  0.61832963     0.11300
H1236       H  0.62614814  0.10360584  0.63675129     0.07800
C1237       C  0.63105328  0.13041768  0.88659264    -0.11300
C1238       C  0.65613926  0.14795529  0.88852159     0.05900
C1239       C  0.66401825  0.16078751  0.91660058    -0.10000
C1240       C  0.64776754  0.15529719  0.94245017    -0.11700
C1241       C  0.62323864  0.13668462  0.94093422    -0.01500
C1242       C  0.61480848  0.12470323  0.91258838    -0.10600
C1243       C  0.67427456  0.15330727  0.86158502     0.05900
H1244       H  0.68288342  0.17508486  0.91857434     0.07800
H1245       H  0.65479019  0.16522337  0.96375315     0.11300
H1246       H  0.59601912  0.11032345  0.91057187     0.11500
H1247       H  0.62445077  0.12044365  0.86516050     0.07800
C1248       C  0.70379348  0.15078845  0.86421587    -0.11300
C1249       C  0.72144577  0.16153410  0.84111851    -0.10600
C1250       C  0.70992926  0.17478390  0.81491270    -0.01500
C1251       C  0.68045565  0.17476393  0.81097197    -0.11700
C1252       C  0.66268502  0.16395557  0.83415940    -0.10100
H1253       H  0.71324417  0.14223877  0.88494529     0.07800
H1254       H  0.74410851  0.16206114  0.84486985     0.11500
H1255       H  0.67118187  0.18584065  0.79132383     0.11300
H1256       H  0.64000214  0.16625580  0.83163074     0.07800
C1257       C  0.87159743  0.35252677  0.80683633    -0.11300
C1258       C  0.87832179  0.34986307  0.83782905     0.05900
C1259       C  0.86168885  0.33020655  0.85601085    -0.10000
C1260       C  0.83939979  0.31296089  0.84334347    -0.11700
C1261       C  0.83303160  0.31510409  0.81219380    -0.01500
C1262       C  0.84920717  0.33542884  0.79418562    -0.10600
C1263       C  0.90395835  0.36552260  0.85047642     0.05900
H1264       H  0.86649458  0.32736549  0.87985334     0.07800
H1265       H  0.82725670  0.29776139  0.85800368     0.11300
H1266       H  0.84480119  0.33787544  0.77020992     0.11500
H1267       H  0.88384166  0.36772645  0.79227113     0.07800
C1268       C  0.92920761  0.36527263  0.83383064    -0.11300
C1269       C  0.95401306  0.37787854  0.84587895    -0.10600
C1270       C  0.95444153  0.39126036  0.87499281    -0.01500
C1271       C  0.92903125  0.39235202  0.89152178    -0.11700
C1272       C  0.90403104  0.37940603  0.87943324    -0.10100
H1273       H  0.93005046  0.35438965  0.81171887     0.07800
H1274       H  0.97306950  0.37668717  0.83233800     0.11500
H1275       H  0.92863144  0.40245583  0.91399849     0.11300
H1276       H  0.88481026  0.38010344  0.89274289     0.07800
C1277       C  0.14227330  0.66371946  0.66324633    -0.11300
C1278       C  0.14068069  0.67736342  0.63438838     0.05900
C1279       C  0.16050808  0.70052493  0.62648939    -0.10000
C1280       C  0.18144371  0.70976897  0.64689955    -0.11700
C1281       C  0.18338451  0.69556741  0.67535000    -0.01500
C1282       C  0.16359105  0.67258811  0.68346889    -0.10600
C1283       C  0.11983911  0.66626599  0.61163359     0.05900
H1284       H  0.16040887  0.71095952  0.60417559     0.07800
H1285       H  0.19657452  0.72745531  0.64014826     0.11300
H1286       H  0.16445190  0.66170227  0.70557634     0.11500
H1287       H  0.12712896  0.64613903  0.67015587     0.07800
C1288       C  0.11353952  0.63440822  0.60875761    -0.11300
C1289       C  0.09845106  0.62340852  0.58362859    -0.10600
C1290       C  0.08990217  0.64409200  0.56094992    -0.01500
C1291       C  0.09405522  0.67603143  0.56507618    -0.11700
C1292       C  0.10855800  0.68707132  0.59039246    -0.10100
H1293       H  0.12199426  0.61773452  0.62464726     0.07800
H1294       H  0.09560974  0.59862494  0.58067694     0.11500
H1295       H  0.08734574  0.69234024  0.54787156     0.11300
H1296       H  0.11222592  0.71180911  0.59248451     0.07800
C1297       C  0.39825830  0.85586780  0.63293048    -0.11300
C1298       C  0.40073499  0.83608996  0.65820150     0.05900
C1299       C  0.42785903  0.82929161  0.66919367    -0.10000
C1300       C  0.45185602  0.84230062  0.65569893    -0.11700
C1301       C  0.44947524  0.86256154  0.63079594    -0.01500
C1302       C  0.42237021  0.86894334  0.61934617    -0.10600
C1303       C  0.37524114  0.82389167  0.67419631     0.05900
H1304       H  0.43054749  0.81459736  0.68887341     0.07800
H1305       H  0.47232610  0.83675828  0.66522890     0.11300
H1306       H  0.41974745  0.88424637  0.60010695     0.11500
H1307       H  0.37764192  0.86130283  0.62370897     0.07800
C1308       C  0.35192664  0.84320350  0.67914837    -0.11300
C1309       C  0.32883429  0.83281375  0.69615625    -0.10600
C1310       C  0.32833646  0.80275771  0.70871779    -0.01500
C1311       C  0.35136385  0.78311009  0.70318203    -0.11700
C1312       C  0.37457284  0.79358270  0.68614143    -0.10100
H1313       H  0.35192000  0.86680618  0.67074799     0.07800
H1314       H  0.31157924  0.84872694  0.69999183     0.11500
H1315       H  0.35176061  0.75991304  0.71257989     0.11300
H1316       H  0.39212706  0.77802376  0.68250675     0.07800
C1317       C  0.16607539  0.67301498  0.84138410    -0.11300
C1318       C  0.13820145  0.68256246  0.83551339     0.05900
C1319       C  0.13364201  0.70368518  0.81162347    -0.10000
C1320       C  0.15616087  0.71395543  0.79348564    -0.11700
C1321       C  0.18371361  0.70302952  0.79850867    -0.01500
C1322       C  0.18845188  0.68289772  0.82300365    -0.10600
C1323       C  0.11399776  0.66951583  0.85337277     0.05900
H1324       H  0.11252004  0.71135457  0.80603771     0.07800
H1325       H  0.15174876  0.72926477  0.77462651     0.11300
H1326       H  0.20946336  0.67422115  0.82763570     0.11500
H1327       H  0.17067127  0.65752840  0.86001797     0.07800
C1328       C  0.11462675  0.63875402  0.86427907    -0.11300
C1329       C  0.09150843  0.62601176  0.87986817    -0.10600
C1330       C  0.06696957  0.64348018  0.88439961    -0.01500
C1331       C  0.06641038  0.67431463  0.87400085    -0.11700
C1332       C  0.08967653  0.68724650  0.85892279    -0.10100
H1333       H  0.13262872  0.62404436  0.85996087     0.07800
H1334       H  0.09240186  0.60208027  0.88725633     0.11500
H1335       H  0.04781876  0.68845428  0.87735130     0.11300
H1336       H  0.08849365  0.71114588  0.85154936     0.07800
C1337       C  0.34467322  0.60998421  0.79100247    -0.11300
C1338       C  0.36389809  0.61966154  0.81352100     0.05900
C1339       C  0.36482897  0.65146640  0.82109980    -0.10000
C1340       C  0.34655608  0.67279787  0.80690400    -0.11700
C1341       C  0.32657510  0.66266300  0.78526156    -0.01500
C1342       C  0.32627457  0.63103292  0.77727536    -0.10600
C1343       C  0.38149260  0.59596272  0.82969061     0.05900
H1344       H  0.37948895  0.65977723  0.83820380     0.07800
H1345       H  0.34729156  0.69693489  0.81371332     0.11300
H1346       H  0.31127487  0.62230595  0.76069520     0.11500
H1347       H  0.34300734  0.58573479  0.78475914     0.07800
C1348       C  0.39313076  0.57093691  0.81354739    -0.11300
C1349       C  0.40540637  0.54590229  0.82877111    -0.10600
C1350       C  0.40685793  0.54529306  0.86058004    -0.01500
C1351       C  0.39705049  0.57115934  0.87680984    -0.11700
C1352       C  0.38439099  0.59620276  0.86152208    -0.10100
H1353       H  0.39186198  0.57019645  0.78904509     0.07800
H1354       H  0.41306237  0.52645156  0.81563637     0.11500
H1355       H  0.39766037  0.57119892  0.90135281     0.11300
H1356       H  0.37549724  0.61492851  0.87471954     0.07800
C1357       C  0.33550100  0.84393164  0.86529112    -0.11300
C1358       C  0.35930419  0.82587254  0.87207834     0.05900
C1359       C  0.36133984  0.79601627  0.85941789    -0.10000
C1360       C  0.34025035  0.78468843  0.84005817    -0.11700
C1361       C  0.31677526  0.80307590  0.83275370    -0.01500
C1362       C  0.31452908  0.83271255  0.84579005    -0.10600
C1363       C  0.38102973  0.83757564  0.89364097     0.05900
H1364       H  0.37949079  0.78158823  0.86405801     0.07800
H1365       H  0.34282244  0.76192803  0.83004761     0.11300
H1366       H  0.29670125  0.84745210  0.84063704     0.11500
H1367       H  0.33291657  0.86667859  0.87529758     0.07800
C1368       C  0.38899818  0.86915143  0.89413947    -0.11300
C1369       C  0.40635355  0.88079686  0.91732992    -0.10600
C1370       C  0.41584205  0.86101673  0.94036874    -0.01500
C1371       C  0.40951898  0.82917196  0.93861619    -0.11700
C1372       C  0.39234751  0.81756086  0.91551977    -0.10100
H1373       H  0.38101505  0.88502874  0.87720685     0.07800
H1374       H  0.41078971  0.90546918  0.91832001     0.11500
H1375       H  0.41665971  0.81343422  0.95612584     0.11300
H1376       H  0.38655430  0.79321380  0.91595413     0.07800
C1377       C  0.14501291  0.84400826  0.67512772    -0.11300
C1378       C  0.14847085  0.87631658  0.67900190     0.05900
C1379       C  0.17108481  0.88688802  0.69713118    -0.10000
C1380       C  0.18961623  0.86613820  0.71093651    -0.11700
C1381       C  0.18630871  0.83391730  0.70727500    -0.01500
C1382       C  0.16360262  0.82299866  0.68934559    -0.10600
C1383       C  0.12944443  0.89958881  0.66416148     0.05900
H1384       H  0.17493482  0.91148350  0.70022126     0.07800
H1385       H  0.20675011  0.87550285  0.72455673     0.11300
H1386       H  0.16051709  0.79832215  0.68590935     0.11500
H1387       H  0.12784435  0.83500282  0.66135075     0.07800
C1388       C  0.12046624  0.89653976  0.63376626    -0.11300
C1389       C  0.10695996  0.92132179  0.61879481    -0.10600
C1390       C  0.10237516  0.94960948  0.63392519    -0.01500
C1391       C  0.10933151  0.95155069  0.66487051    -0.11700
C1392       C  0.12242435  0.92693317  0.67976444    -0.10100
H1393       H  0.12537190  0.87577941  0.62104987     0.07800
H1394       H  0.10176718  0.91904410  0.59497906     0.11500
H1395       H  0.10557958  0.97272435  0.67744186     0.11300
H1396       H  0.12806737  0.92983103  0.70340306     0.07800
C1397       C  0.84296096  0.66354916  0.65182144    -0.11300
C1398       C  0.82881811  0.63731511  0.64033854     0.05900
C1399       C  0.80243155  0.62877917  0.65265432    -0.10000
C1400       C  0.78993822  0.64696313  0.67526434    -0.11700
C1401       C  0.80348814  0.67412218  0.68534427    -0.01500
C1402       C  0.83023915  0.68198585  0.67386001    -0.10600
C1403       C  0.84017672  0.62151645  0.61319001     0.05900
H1404       H  0.79107712  0.60873523  0.64397016     0.07800
H1405       H  0.76896017  0.64101182  0.68335958     0.11300
H1406       H  0.84067050  0.70327303  0.68092347     0.11500
H1407       H  0.86304031  0.67091748  0.64232912     0.07800
C1408       C  0.82310211  0.61811608  0.58736943    -0.11300
C1409       C  0.83467379  0.60773724  0.56012568    -0.10600
C1410       C  0.86355911  0.60022358  0.55813039    -0.01500
C1411       C  0.88033568  0.60215707  0.58440352    -0.11700
C1412       C  0.86878842  0.61299819  0.61163048    -0.10100
H1413       H  0.80108804  0.62492620  0.58787310     0.07800
H1414       H  0.82105466  0.60632773  0.54040165     0.11500
H1415       H  0.90260297  0.59648734  0.58364420     0.11300
H1416       H  0.88234178  0.61547846  0.63131275     0.07800
C1417       C  0.68270159  0.66590381  0.85407987    -0.11300
C1418       C  0.67946193  0.63686567  0.83992385     0.05900
C1419       C  0.69574740  0.63085394  0.81374778    -0.10000
C1420       C  0.71469301  0.65314762  0.80223344    -0.11700
C1421       C  0.71818162  0.68188715  0.81682136    -0.01500
C1422       C  0.70185518  0.68794799  0.84283273    -0.10600
C1423       C  0.65978409  0.61273702  0.85273886     0.05900
H1424       H  0.69442226  0.60860267  0.80244502     0.07800
H1425       H  0.72705098  0.64761230  0.78231733     0.11300
H1426       H  0.70375369  0.70994988  0.85456296     0.11500
H1427       H  0.67029379  0.67181460  0.87382800     0.07800
C1428       C  0.65534321  0.60994814  0.88432210    -0.11300
C1429       C  0.63903496  0.58543223  0.89627984    -0.10600
C1430       C  0.62714054  0.56302749  0.87694270    -0.01500
C1431       C  0.63033462  0.56665181  0.84547802    -0.11700
C1432       C  0.64612685  0.59129595  0.83352252    -0.10100
H1433       H  0.66564572  0.62570902  0.90000226     0.07800
H1434       H  0.63737173  0.58280829  0.92063031     0.11500
H1435       H  0.62141368  0.54959522  0.83006796     0.11300
H1436       H  0.64816145  0.59302776  0.80914878     0.07800
C1437       C  0.63718515  0.84070865  0.70069023    -0.11300
C1438       C  0.63030082  0.83827937  0.66972784     0.05900
C1439       C  0.64826200  0.82145411  0.65058953    -0.10000
C1440       C  0.67225892  0.80688987  0.66216567    -0.11700
C1441       C  0.67905860  0.80893603  0.69317691    -0.01500
C1442       C  0.66141982  0.82636461  0.71227030    -0.10600
C1443       C  0.60383823  0.85192649  0.65753088     0.05900
H1444       H  0.64334050  0.81885039  0.62673401     0.07800
H1445       H  0.68543626  0.79384736  0.64674149     0.11300
H1446       H  0.66607431  0.82850126  0.73623119     0.11500
H1447       H  0.62380330  0.85372065  0.71593892     0.07800
C1448       C  0.57827805  0.84821360  0.67330509    -0.11300
C1449       C  0.55295157  0.85887303  0.66090827    -0.10600
C1450       C  0.55253914  0.87375690  0.63250376    -0.01500
C1451       C  0.57822642  0.87835662  0.61710674    -0.11700
C1452       C  0.60360224  0.86735725  0.62941382    -0.10100
H1453       H  0.57772132  0.83614775  0.69482854     0.07800
H1454       H  0.53357705  0.85506319  0.67349792     0.11500
H1455       H  0.57862308  0.88968659  0.59520827     0.11300
H1456       H  0.62305687  0.87074296  0.61686298     0.07800
C1457       C  0.67358365  0.84792452  0.85508398    -0.11300
C1458       C  0.68622591  0.87582151  0.86459936     0.05900
C1459       C  0.71251868  0.88481864  0.85247487    -0.10000
C1460       C  0.72653865  0.86542995  0.83207414    -0.11700
C1461       C  0.71461687  0.83666857  0.82424155    -0.01500
C1462       C  0.68786899  0.82829295  0.83534818    -0.10600
C1463       C  0.67387708  0.89263702  0.89039538     0.05900
H1464       H  0.72266522  0.90616519  0.85979375     0.07800
H1465       H  0.74740878  0.87189711  0.82403048     0.11300
H1466       H  0.67860009  0.80594161  0.82972710     0.11500
H1467       H  0.65356242  0.84032268  0.86455754     0.07800
C1468       C  0.64500954  0.90000122  0.89075381    -0.11300
C1469       C  0.63242213  0.91084813  0.91733006    -0.10600
C1470       C  0.64845734  0.91388515  0.94404838    -0.01500
C1471       C  0.67760564  0.90776859  0.94318347    -0.11700
C1472       C  0.69021747  0.89740294  0.91654887    -0.10100
H1473       H  0.63207316  0.89636137  0.87075805     0.07800
H1474       H  0.60994396  0.91553602  0.91727755     0.11500
H1475       H  0.69057926  0.91017418  0.96331586     0.11300
H1476       H  0.71244408  0.89144135  0.91684954     0.07800
C1477       C  0.85439021  0.93026096  0.67083132    -0.11300
C1478       C  0.85552011  0.90060828  0.65776533     0.05900
C1479       C  0.87185348  0.89667968  0.63125513    -0.10000
C1480       C  0.88573559  0.92204708  0.61763586    -0.11700
C1481       C  0.88363136  0.95186262  0.63028687    -0.01500
C1482       C  0.86827648  0.95537224  0.65742465    -0.10600
C1483       C  0.83805847  0.87473611  0.67070453     0.05900
H1484       H  0.87363946  0.87406225  0.62078431     0.07800
H1485       H  0.89748094  0.91844778  0.59688626     0.11300
H1486       H  0.86625033  0.97786616  0.66811819     0.11500
H1487       H  0.84177964  0.93450493  0.69085147     0.07800
C1488       C  0.83282183  0.87258417  0.70214261    -0.11300
C1489       C  0.81417426  0.85006564  0.71376134    -0.10600
C1490       C  0.80058520  0.82888948  0.69426952    -0.01500
C1491       C  0.80640485  0.83058221  0.66300229    -0.11700
C1492       C  0.82473584  0.85319369  0.65140430    -0.10100
H1493       H  0.84303994  0.88840774  0.71784115     0.07800
H1494       H  0.81041714  0.84924085  0.73796187     0.11500
H1495       H  0.79628577  0.81476145  0.64720838     0.11300
H1496       H  0.82767616  0.85437135  0.62710276     0.07800
C1497       C  0.87759579  0.66422007  0.81974083    -0.11300
C1498       C  0.88806508  0.67473752  0.84779197     0.05900
C1499       C  0.87451433  0.69933399  0.86242022    -0.10000
C1500       C  0.85102873  0.71334449  0.84931806    -0.11700
C1501       C  0.84053199  0.70329923  0.82103890    -0.01500
C1502       C  0.85410474  0.67853376  0.80633801    -0.10600
C1503       C  0.91402875  0.66162134  0.86127367     0.05900
H1504       H  0.88219049  0.70777350  0.88408660     0.07800
H1505       H  0.84121529  0.73229412  0.86141156     0.11300
H1506       H  0.84657019  0.67021213  0.78458991     0.11500
H1507       H  0.88798151  0.64544411  0.80793619     0.07800
C1508       C  0.91671664  0.62960570  0.86646049    -0.11300
C1509       C  0.94145086  0.61784408  0.87964472    -0.10600
C1510       C  0.96400464  0.63791194  0.88704024    -0.01500
C1511       C  0.96111449  0.66986928  0.88194349    -0.11700
C1512       C  0.93630383  0.68161964  0.86948560    -0.10100
H1513       H  0.89965159  0.61382968  0.86049538     0.07800
H1514       H  0.94330819  0.59307880  0.88318886     0.11500
H1515       H  0.97816296  0.68582472  0.88752987     0.11300
H1516       H  0.93468967  0.70637542  0.86569332     0.07800
loop_ 
_geom_bond_atom_site_label_1 
_geom_bond_atom_site_label_2 
_geom_bond_distance 
_geom_bond_site_symmetry_2 
_ccdc_geom_bond_type 
N1            C6   1.356       .  A
N1            C5   1.357       .  A
N1           H33   1.036       .  S
N2            C9   1.354   1_565  A
N2           C10   1.353       .  A
N3            C8   1.355       .  A
N3            C7   1.354       .  A
N3           H34   1.037       .  S
N4           C11   1.353   1_565  A
N4           C12   1.354       .  A
C5           C13   1.387       .  A
C5           C21   1.422       .  A
C6           C22   1.423       .  A
C6           C14   1.388       .  A
C7           C15   1.388       .  A
C7           C24   1.418       .  A
C8           C23   1.417       .  A
C8           C16   1.386       .  A
C9           C21   1.419       .  A
C9           C17   1.387       .  A
C10          C24   1.416       .  A
C10          C18   1.386       .  A
C11          C19   1.388       .  A
C11          C22   1.418       .  A
C12          C20   1.385       .  A
C12          C23   1.415       .  A
C13          C14   1.379       .  A
C13          H25   1.082       .  S
C14          H26   1.082       .  S
C15          C16   1.377       .  A
C15          H27   1.082       .  S
C16          H28   1.082       .  S
C17          C18   1.372   1_545  A
C17          H29   1.082       .  S
C18          H30   1.082       .  S
C19          C20   1.372   1_545  A
C19          H31   1.082       .  S
C20          H32   1.082       .  S
C21         C435   1.490       .  S
C22         C519   1.485       .  S
C23         C541   1.485       .  S
C24         C483   1.481       .  S
N35          C40   1.353       .  A
N35          C39   1.354       .  A
N35          H67   1.036       .  S
N36          C43   1.352       .  A
N36          C44   1.351   1_655  A
N37          C42   1.353       .  A
N37          C41   1.354       .  A
N37          H68   1.035       .  S
N38          C45   1.351   1_455  A
N38          C46   1.351       .  A
C39          C47   1.386       .  A
C39          C55   1.414       .  A
C40          C56   1.417       .  A
C40          C48   1.389       .  A
C41          C49   1.387       .  A
C41          C58   1.416       .  A
C42          C57   1.418       .  A
C42          C50   1.388       .  A
C43          C55   1.412       .  A
C43          C51   1.385       .  A
C44          C58   1.416       .  A
C44          C52   1.388   1_455  A
C45          C53   1.386       .  A
C45          C56   1.412       .  A
C46          C54   1.387       .  A
C46          C57   1.413       .  A
C47          C48   1.369       .  A
C47          H59   1.081       .  S
C48          H60   1.080       .  S
C49          C50   1.374       .  A
C49          H61   1.082       .  S
C50          H62   1.082       .  S
C51          C52   1.374       .  A
C51          H63   1.082       .  S
C52          H64   1.082   1_655  S
C53          C54   1.376   1_655  A
C53          H65   1.082       .  S
C54          H66   1.082       .  S
C55         C553   1.479       .  S
C56         C457   1.477       .  S
C57         C501   1.476       .  S
C58         C489   1.477       .  S
N69          C74   1.356   1_556  A
N69          C73   1.357       .  A
N69         H101   1.036       .  S
N70          C77   1.358       .  A
N70          C78   1.357       .  A
N71          C76   1.360   1_556  A
N71          C75   1.359       .  A
N71         H102   1.035       .  S
N72          C79   1.356       .  A
N72          C80   1.357       .  A
C73          C81   1.387       .  A
C73          C89   1.422       .  A
C74          C90   1.422       .  A
C74          C82   1.388       .  A
C75          C83   1.388       .  A
C75          C92   1.428       .  A
C76          C91   1.426       .  A
C76          C84   1.387       .  A
C77          C89   1.423       .  A
C77          C85   1.385       .  A
C78          C92   1.427       .  A
C78          C86   1.388       .  A
C79          C87   1.387       .  A
C79          C90   1.422       .  A
C80          C88   1.387       .  A
C80          C91   1.424       .  A
C81          C82   1.378   1_556  A
C81          H93   1.082       .  S
C82          H94   1.082       .  S
C83          C84   1.380   1_556  A
C83          H95   1.082       .  S
C84          H96   1.082       .  S
C85          C86   1.375       .  A
C85          H97   1.082       .  S
C86          H98   1.082       .  S
C87          C88   1.375       .  A
C87          H99   1.082       .  S
C88         H100   1.082       .  S
C89         C549   1.497       .  S
C90         C453   1.490       .  S
C91         C463   1.501       .  S
C92         C523   1.500       .  S
N103        C108   1.356       .  A
N103        C107   1.356   1_554  A
N103        H135   1.036       .  S
N104        C111   1.353       .  A
N104        C112   1.353       .  A
N105        C110   1.355       .  A
N105        C109   1.355   1_554  A
N105        H136   1.038       .  S
N106        C113   1.354       .  A
N106        C114   1.354       .  A
C107        C115   1.388   1_455  A
C107        C123   1.422       .  A
C108        C124   1.420       .  A
C108        C116   1.387   1_455  A
C109        C117   1.388       .  A
C109        C126   1.419       .  A
C110        C125   1.416       .  A
C110        C118   1.386       .  A
C111        C123   1.420       .  A
C111        C119   1.388       .  A
C112        C126   1.415       .  A
C112        C120   1.385       .  A
C113        C121   1.388       .  A
C113        C124   1.418       .  A
C114        C122   1.385       .  A
C114        C125   1.415       .  A
C115        C116   1.379   1_556  A
C115        H127   1.082       .  S
C116        H128   1.082       .  S
C117        C118   1.375   1_556  A
C117        H129   1.082       .  S
C118        H130   1.082   1_455  S
C119        C120   1.374       .  A
C119        H131   1.082       .  S
C120        H132   1.082       .  S
C121        C122   1.373       .  A
C121        H133   1.082       .  S
C122        H134   1.082       .  S
C123        C505   1.489       .  S
C124        C421   1.485       .  S
C125        C469   1.484       .  S
C126        C535   1.484       .  S
N137        C142   1.353       .  A
N137        C141   1.352   1_545  A
N137        H169   1.038   1_556  S
N138        C145   1.349   1_556  A
N138        C146   1.350   1_556  A
N139        C144   1.351   1_565  A
N139        C143   1.355       .  A
N139        H170   1.037   1_566  S
N140        C147   1.352       .  A
N140        C148   1.350       .  A
C141        C149   1.389   1_565  A
C141        C157   1.414   1_556  A
C142        C158   1.413       .  A
C142        C150   1.387       .  A
C143        C151   1.387       .  A
C143        C160   1.415       .  A
C144        C159   1.414       .  A
C144        C152   1.388       .  A
C145        C157   1.409       .  A
C145        C153   1.386       .  A
C146        C160   1.412   1_554  A
C146        C154   1.387       .  A
C147        C155   1.385   1_556  A
C147        C158   1.411       .  A
C148        C156   1.387   1_556  A
C148        C159   1.412       .  A
C149        C150   1.371       .  A
C149        H161   1.082   1_545  S
C150        H162   1.082       .  S
C151        C152   1.375   1_565  A
C151        H163   1.082       .  S
C152        H164   1.082       .  S
C153        C154   1.375       .  A
C153        H165   1.082       .  S
C154        H166   1.082       .  S
C155        C156   1.375       .  A
C155        H167   1.082       .  S
C156        H168   1.082       .  S
C157        C493   1.470       .  S
C158        C447   1.476       .  S
C159        C429   1.472       .  S
C160        C477   1.479       .  S
O171       Ni177   1.924       .  S
O171        C192   1.270       .  A
O172       Ni195   1.917       .  S
O172        C181   1.271       .  A
O173       Ni177   1.893       .  S
O173       Ni195   1.902       .  S
O173       Ni189   1.908       .  S
O173        H196   0.966       .  S
C174       C1441   1.486       .  S
C174        O191   1.278       .  A
C174        O183   1.278       .  A
O175       Ni194   1.923       .  S
O175        C181   1.271       .  A
O176       Ni194   1.901       .  S
O176        C178   1.267       .  A
Ni177       O180   1.915       .  S
Ni177       O182   1.901       .  S
C178       C1490   1.489       .  S
C178        O188   1.275       .  A
O179       Ni195   1.934       .  S
O179        C185   1.282       .  A
O180        C185   1.278       .  A
C181       C1401   1.466       .  S
O182        C184   1.267       .  A
O183       Ni194   1.922       .  S
C184       C1421   1.490       .  S
C184        O190   1.277       .  A
C185       C1501   1.486       .  S
H186        O187   0.966       .  S
O187       Ni195   1.917       .  S
O187       Ni189   1.901       .  S
O187       Ni194   1.897       .  S
O188       Ni189   1.942       .  S
Ni189       O193   1.907       .  S
Ni189       O191   1.926       .  S
O190       Ni195   1.945       .  S
C192       C1461   1.461       .  S
C192        O193   1.267       .  A
O197       Ni203   1.930       .  S
O197        C218   1.274       .  A
O198       Ni221   1.927       .  S
O198        C207   1.270       .  A
O199       Ni203   1.915       .  S
O199       Ni221   1.918       .  S
O199       Ni215   1.919       .  S
O199        H222   0.966       .  S
C200       C1361   1.478       .  S
C200        O217   1.272       .  A
C200        O209   1.274       .  A
O201       Ni220   1.931       .  S
O201        C207   1.271       .  A
O202       Ni220   1.900       .  S
O202        C204   1.270       .  A
Ni203       O206   1.937       .  S
Ni203       O208   1.903       .  S
C204       C1310   1.488       .  S
C204        O214   1.279       .  A
O205       Ni221   1.894       .  S
O205        C211   1.266       .  A
O206        C211   1.273       .  A
C207       C1381   1.496       .  S
O208        C210   1.270       .  A
O209       Ni220   1.917       .  S
C210       C1321   1.484       .  S
C210        O216   1.279       .  A
C211       C1281   1.468       .  S
H212        O213   0.966       .  S
O213       Ni221   1.908       .  S
O213       Ni215   1.922       .  S
O213       Ni220   1.911       .  S
O214       Ni215   1.943       .  S
Ni215       O219   1.931       .  S
Ni215       O217   1.908       .  S
O216       Ni221   1.955       .  S
C218       C1341   1.497       .  S
C218        O219   1.275       .  A
O223       Ni229   1.931       .  S
O223        C244   1.272       .  A
O224       Ni247   1.916       .  S
O224        C233   1.271       .  A
O225       Ni229   1.901       .  S
O225       Ni247   1.905       .  S
O225       Ni241   1.915       .  S
O225        H248   0.966       .  S
C226       C1261   1.489       .  S
C226        O243   1.277       .  A
C226        O235   1.275       .  A
O227       Ni246   1.915       .  S
O227        C233   1.269       .  A
O228       Ni246   1.901       .  S
O228        C230   1.268       .  A
Ni229       O232   1.931       .  S
Ni229       O234   1.902       .  S
C230       C1181   1.488       .  S
C230        O240   1.276       .  A
O231       Ni247   1.924       .  S
O231        C237   1.277       .  A
O232        C237   1.279       .  A
C233       C1250   1.464       .  S
O234        C236   1.268       .  A
O235       Ni246   1.920       .  S
C236       C1210   1.486       .  S
C236        O242   1.277       .  A
C237       C1221   1.487       .  S
H238        O239   0.966       .  S
O239       Ni247   1.922       .  S
O239       Ni241   1.904       .  S
O239       Ni246   1.903       .  S
O240       Ni241   1.940       .  S
Ni241       O245   1.909       .  S
Ni241       O243   1.926       .  S
O242       Ni247   1.942       .  S
C244       C1170   1.468       .  S
C244        O245   1.268       .  A
O249       Ni255   1.933       .  S
O249        C270   1.275       .  A
O250       Ni273   1.920       .  S
O250        C259   1.274       .  A
O251       Ni255   1.893       .  S
O251       Ni273   1.906       .  S
O251       Ni267   1.911       .  S
O251        H274   0.966       .  S
C252       C1141   1.476       .  S
C252        O269   1.279       .  A
C252        O261   1.278       .  A
O253       Ni272   1.929       .  S
O253        C259   1.273       .  A
O254       Ni272   1.909       .  S
O254        C256   1.270       .  A
Ni255       O258   1.920       .  S
Ni255       O260   1.906       .  S
C256       C1050   1.498       .  S
C256        O266   1.278       .  A
O257       Ni273   1.927       .  S
O257        C263   1.278       .  A
O258        C263   1.278       .  A
C259       C1110   1.484       .  S
O260        C262   1.270       .  A
O261       Ni272   1.918       .  S
C262       C1090   1.498       .  S
C262        O268   1.282       .  A
C263       C1130   1.486       .  S
H264        O265   0.966       .  S
O265       Ni273   1.909       .  S
O265       Ni267   1.901       .  S
O265       Ni272   1.890       .  S
O266       Ni267   1.950       .  S
Ni267       O271   1.909       .  S
Ni267       O269   1.928       .  S
O268       Ni273   1.960       .  S
C270       C1061   1.485       .  S
C270        O271   1.272       .  A
O275       Ni281   1.919       .  S
O275        C296   1.271       .  A
O276       Ni299   1.917       .  S
O276        C285   1.268       .  A
O277       Ni281   1.912       .  S
O277       Ni299   1.914       .  S
O277       Ni293   1.931       .  S
O277        H300   0.965       .  S
C278       C1030   1.479       .  S
C278        O295   1.279       .  A
C278        O287   1.274       .  A
O279       Ni298   1.910       .  S
O279        C285   1.267       .  A
O280       Ni298   1.903       .  S
O280        C282   1.267       .  A
Ni281       O284   1.931       .  S
Ni281       O286   1.903       .  S
C282        C941   1.488       .  S
C282        O292   1.275       .  A
O283       Ni299   1.904       .  S
O283        C289   1.268       .  A
O284        C289   1.272       .  A
C285        C961   1.472       .  S
O286        C288   1.271       .  A
O287       Ni298   1.905       .  S
C288       C1010   1.494       .  S
C288        O294   1.283       .  A
C289        C981   1.473       .  S
H290        O291   0.961       .  S
O291       Ni299   1.906       .  S
O291       Ni293   1.898       .  S
O291       Ni298   1.904       .  S
O292       Ni293   1.941       .  S
Ni293       O297   1.907       .  S
Ni293       O295   1.931       .  S
O294       Ni299   1.963       .  S
C296        C921   1.468       .  S
C296        O297   1.269       .  A
O301       Ni307   1.926       .  S
O301        C322   1.272       .  A
O302       Ni325   1.932       .  S
O302        C311   1.273       .  A
O303       Ni307   1.910       .  S
O303       Ni325   1.924       .  S
O303       Ni319   1.926       .  S
O303        H326   0.966       .  S
C304        C801   1.481       .  S
C304        O321   1.275       .  A
C304        O313   1.276       .  A
O305       Ni324   1.926       .  S
O305        C311   1.271       .  A
O306       Ni324   1.901       .  S
O306        C308   1.269       .  A
Ni307       O310   1.929       .  S
Ni307       O312   1.901       .  S
C308        C861   1.488       .  S
C308        O318   1.275       .  A
O309       Ni325   1.903       .  S
O309        C315   1.269       .  A
O310        C315   1.273       .  A
C311        C881   1.496       .  S
O312        C314   1.271       .  A
O313       Ni324   1.919       .  S
C314        C830   1.484       .  S
C314        O320   1.282       .  A
C315        C850   1.478       .  S
H316        O317   0.966       .  S
O317       Ni325   1.906       .  S
O317       Ni319   1.907       .  S
O317       Ni324   1.904       .  S
O318       Ni319   1.938       .  S
Ni319       O323   1.918       .  S
Ni319       O321   1.914       .  S
O320       Ni325   1.960       .  S
C322        C901   1.485       .  S
C322        O323   1.270       .  A
O327       Ni333   1.921       .  S
O327        C348   1.271       .  A
O328       Ni351   1.925       .  S
O328        C337   1.272       .  A
O329       Ni333   1.906       .  S
O329       Ni351   1.915       .  S
O329       Ni345   1.925       .  S
O329        H352   0.966       .  S
C330        C761   1.488       .  S
C330        O347   1.279       .  A
C330        O339   1.277       .  A
O331       Ni350   1.912       .  S
O331        C337   1.269       .  A
O332       Ni350   1.908       .  S
O332        C334   1.268       .  A
Ni333       O336   1.924       .  S
Ni333       O338   1.899       .  S
C334        C750   1.495       .  S
C334        O344   1.276       .  A
O335       Ni351   1.912       .  S
O335        C341   1.274       .  A
O336        C341   1.275       .  A
C337        C690   1.475       .  S
O338        C340   1.269       .  A
O339       Ni350   1.917       .  S
C340        C701   1.491       .  S
C340        O346   1.281       .  A
C341        C790   1.483       .  S
H342        O343   0.966       .  S
O343       Ni351   1.914       .  S
O343       Ni345   1.896       .  S
O343       Ni350   1.898       .  S
O344       Ni345   1.943       .  S
Ni345       O349   1.906       .  S
Ni345       O347   1.931       .  S
O346       Ni351   1.955       .  S
C348        C730   1.464       .  S
C348        O349   1.267       .  A
N353        C358   1.359       .  A
N353        C357   1.358   1_565  A
N353        H385   1.035       .  S
N354        C361   1.357       .  A
N354        C362   1.358   1_655  A
N355        C360   1.359       .  A
N355        C359   1.360       .  A
N355        H386   1.034   1_545  S
N356        C363   1.359       .  A
N356        C364   1.358   1_655  A
C357        C365   1.388       .  A
C357        C373   1.425       .  A
C358        C374   1.426       .  A
C358        C366   1.388   1_565  A
C359        C367   1.386       .  A
C359        C376   1.428       .  A
C360        C375   1.430       .  A
C360        C368   1.389       .  A
C361        C373   1.423       .  A
C361        C369   1.387       .  A
C362        C376   1.424       .  A
C362        C370   1.387       .  A
C363        C371   1.386       .  A
C363        C374   1.427       .  A
C364        C372   1.388       .  A
C364        C375   1.428   1_565  A
C365        C366   1.379       .  A
C365        H377   1.082       .  S
C366        H378   1.082       .  S
C367        C368   1.380       .  A
C367        H379   1.082       .  S
C368        H380   1.082       .  S
C369        C370   1.373   1_655  A
C369        H381   1.082   1_545  S
C370        H382   1.082   1_545  S
C371        C372   1.377   1_655  A
C371        H383   1.082       .  S
C372        H384   1.082       .  S
C373        C531   1.493       .  S
C374        C441   1.502       .  S
C375        C389   1.502       .  S
C376        C513   1.502       .  S
C387        N388   1.364       .  A
C387        N392   1.355   1_565  A
C387        C910   1.495       .  S
N388        C389   1.369   1_565  A
C389        N390   1.372       .  A
N390        C391   1.367       .  A
C391        N392   1.354       .  A
C391        C670   1.499       .  S
O393       Ni399   1.929       .  S
O393        C414   1.273       .  A
O394       Ni417   1.913       .  S
O394        C403   1.273       .  A
O395       Ni399   1.891       .  S
O395       Ni417   1.903       .  S
O395       Ni411   1.911       .  S
O395        H418   0.967       .  S
C396        C561   1.475       .  S
C396        O413   1.277       .  A
C396        O405   1.279       .  A
O397       Ni416   1.931       .  S
O397        C403   1.275       .  A
O398       Ni416   1.917       .  S
O398        C400   1.271       .  A
Ni399       O402   1.917       .  S
Ni399       O404   1.905       .  S
C400        C661   1.504       .  S
C400        O410   1.280       .  A
O401       Ni417   1.930       .  S
O401        C407   1.280       .  A
O402        C407   1.278       .  A
C403        C610   1.481       .  S
O404        C406   1.269       .  A
O405       Ni416   1.925       .  S
C406        C590   1.500       .  S
C406        O412   1.280       .  A
C407        C630   1.487       .  S
H408        O409   0.966       .  S
O409       Ni417   1.911       .  S
O409       Ni411   1.897       .  S
O409       Ni416   1.891       .  S
O410       Ni411   1.956       .  S
Ni411       O415   1.908       .  S
Ni411       O413   1.923       .  S
O412       Ni417   1.957       .  S
C414        C650   1.482       .  S
C414        O415   1.271       .  A
C419        N420   1.363       .  A
C419        N424   1.352       .  A
C419        C781   1.485       .  S
N420        C421   1.366   1_655  A
C421        N422   1.364       .  A
N422        C423   1.360       .  A
C423        N424   1.351   1_455  A
C423        C641   1.485       .  S
C425        N426   1.356   1_556  A
C425        N430   1.358       .  A
C425       C1150   1.481       .  S
N426        C427   1.354       .  A
C427        N428   1.358       .  A
C427        C621   1.472       .  S
N428        C429   1.362   1_554  A
C429        N430   1.359       .  A
C431        N432   1.354       .  A
C431        N436   1.363       .  A
C431        C770   1.486       .  S
N432        C433   1.353       .  A
C433        N434   1.362       .  A
C433        C601   1.482       .  S
N434        C435   1.364       .  A
C435        N436   1.365       .  A
C437        N438   1.350       .  A
C437        N442   1.366       .  A
C437       C1001   1.487       .  S
N438        C439   1.352   1_565  A
C439        N440   1.365       .  A
C439        C741   1.495       .  S
N440        C441   1.371   1_545  A
C441        N442   1.372       .  A
C443        N444   1.358   1_554  A
C443        N448   1.358       .  A
C443        C721   1.486       .  S
N444        C445   1.358       .  A
C445        N446   1.359       .  A
C445       C1241   1.485       .  S
N446        C447   1.360       .  A
C447        N448   1.360   1_556  A
C449        N450   1.354       .  A
C449        N454   1.363       .  A
C449        C950   1.490       .  S
N450        C451   1.352       .  A
C451        N452   1.361       .  A
C451        C710   1.481       .  S
N452        C453   1.366       .  A
C453        N454   1.367       .  A
C455        N456   1.357       .  A
C455        N460   1.357       .  A
C455       C1161   1.480       .  S
N456        C457   1.360       .  A
C457        N458   1.363       .  A
N458        C459   1.360       .  A
C459        N460   1.357       .  A
C459        C681   1.481       .  S
C461        N462   1.365       .  A
C461        N466   1.356       .  A
C461        C890   1.496       .  S
N462        C463   1.371       .  A
C463        N464   1.370       .  A
N464        C465   1.365       .  A
C465        N466   1.353       .  A
C465        C581   1.491       .  S
C467        N468   1.360       .  A
C467        N472   1.355   1_655  A
C467       C1021   1.481       .  S
N468        C469   1.361   1_655  A
C469        N470   1.363       .  A
N470        C471   1.363       .  A
C471        N472   1.355       .  A
C471        C870   1.487       .  S
C473        N474   1.351       .  A
C473        N478   1.359       .  A
C473       C1370   1.473       .  S
N474        C475   1.352   1_556  A
C475        N476   1.360       .  A
C475        C841   1.480       .  S
N476        C477   1.363   1_554  A
C477        N478   1.363       .  A
C479        N480   1.355       .  A
C479        N484   1.356       .  A
C479        C990   1.468       .  S
N480        C481   1.356       .  A
C481        N482   1.363       .  A
C481        C821   1.479       .  S
N482        C483   1.363       .  A
C483        N484   1.359       .  A
C485        N486   1.353       .  A
C485        N490   1.355       .  A
C485       C1290   1.465       .  S
N486        C487   1.354       .  A
C487        N488   1.361       .  A
C487        C810   1.482       .  S
N488        C489   1.362       .  A
C489        N490   1.359       .  A
C491        N492   1.355       .  A
C491        N496   1.355       .  A
C491       C1470   1.475       .  S
N492        C493   1.357   1_556  A
C493        N494   1.360       .  A
N494        C495   1.359       .  A
C495        N496   1.356   1_554  A
C495        C970   1.477       .  S
C497        N498   1.356       .  A
C497        N502   1.357       .  A
C497       C1121   1.474       .  S
N498        C499   1.357       .  A
C499        N500   1.359       .  A
C499        C570   1.485       .  S
N500        C501   1.361       .  A
C501        N502   1.361       .  A
C503        N504   1.363       .  A
C503        N508   1.355   1_655  A
C503       C1270   1.488       .  S
N504        C505   1.366   1_655  A
C505        N506   1.364       .  A
N506        C507   1.360       .  A
C507        N508   1.353       .  A
C507       C1101   1.481       .  S
C509        N510   1.355   1_565  A
C509        N514   1.364       .  A
C509       C1390   1.493       .  S
N510        C511   1.355       .  A
C511        N512   1.368       .  A
C511       C1081   1.499       .  S
N512        C513   1.371       .  A
C513        N514   1.370   1_545  A
C515        N516   1.355       .  A
C515        N520   1.361       .  A
C515       C1230   1.480       .  S
N516        C517   1.355       .  A
C517        N518   1.360       .  A
C517       C1070   1.486       .  S
N518        C519   1.363       .  A
C519        N520   1.365       .  A
C521        N522   1.363       .  A
C521        N526   1.357       .  A
C521       C1350   1.489       .  S
N522        C523   1.367       .  A
C523        N524   1.369       .  A
N524        C525   1.367       .  A
C525        N526   1.358       .  A
C525       C1041   1.496       .  S
C527        N528   1.352   1_565  A
C527        N532   1.364       .  A
C527       C1481   1.490       .  S
N528        C529   1.351       .  A
C529        N530   1.363       .  A
C529       C1201   1.482       .  S
N530        C531   1.368       .  A
C531        N532   1.368   1_545  A
C533        N534   1.358       .  A
C533        N538   1.355   1_655  A
C533       C1510   1.475       .  S
N534        C535   1.361   1_655  A
C535        N536   1.363       .  A
N536        C537   1.363       .  A
C537        N538   1.355       .  A
C537       C1330   1.482       .  S
C539        N540   1.361       .  A
C539        N544   1.355       .  A
C539       C1450   1.484       .  S
N540        C541   1.363       .  A
C541        N542   1.363       .  A
N542        C543   1.362       .  A
C543        N544   1.355       .  A
C543       C1301   1.487       .  S
C545        N546   1.351       .  A
C545        N550   1.364       .  A
C545       C1430   1.481       .  S
N546        C547   1.352       .  A
C547        N548   1.364       .  A
C547       C1190   1.490       .  S
N548        C549   1.368       .  A
C549        N550   1.370       .  A
C551        N552   1.361       .  A
C551        N556   1.355       .  A
C551       C1410   1.484       .  S
N552        C553   1.362       .  A
C553        N554   1.361       .  A
N554        C555   1.358       .  A
C555        N556   1.355       .  A
C555        C930   1.482       .  S
C557        C558   1.408       .  A
C557        C562   1.396       .  A
C557        H567   1.083       .  S
C558        C559   1.408       .  A
C558        C563   1.491       .  S
C559        C560   1.400       .  A
C559        H564   1.082       .  S
C560        C561   1.404       .  A
C560        H565   1.083       .  S
C561        C562   1.402       .  A
C562        H566   1.083       .  S
C563        C568   1.406       .  A
C563        C572   1.408       .  A
C568        C569   1.394       .  A
C568        H573   1.082       .  S
C569        C570   1.405       .  A
C569        H574   1.083       .  S
C570        C571   1.407       .  A
C571        C572   1.403       .  A
C571        H575   1.083       .  S
C572        H576   1.083       .  S
C577        C578   1.405       .  A
C577        C582   1.401       .  A
C577        H587   1.083       .  S
C578        C579   1.413       .  A
C578        C583   1.502       .  S
C579        C580   1.408       .  A
C579        H584   1.082       .  S
C580        C581   1.404       .  A
C580        H585   1.083       .  S
C581        C582   1.409       .  A
C582        H586   1.083       .  S
C583        C588   1.413       .  A
C583        C592   1.404       .  A
C588        C589   1.410       .  A
C588        H593   1.083       .  S
C589        C590   1.407       .  A
C589        H594   1.083       .  S
C590        C591   1.411       .  A
C591        C592   1.399       .  A
C591        H595   1.083       .  S
C592        H596   1.083       .  S
C597        C598   1.407       .  A
C597        C602   1.396       .  A
C597        H607   1.082       .  S
C598        C599   1.413       .  A
C598        C603   1.499       .  S
C599        C600   1.401       .  A
C599        H604   1.081       .  S
C600        C601   1.402       .  A
C600        H605   1.083       .  S
C601        C602   1.406       .  A
C602        H606   1.083       .  S
C603        C608   1.413       .  A
C603        C612   1.407       .  A
C608        C609   1.401       .  A
C608        H613   1.081       .  S
C609        C610   1.402       .  A
C609        H614   1.083       .  S
C610        C611   1.405       .  A
C611        C612   1.396       .  A
C611        H615   1.083       .  S
C612        H616   1.081       .  S
C617        C618   1.408       .  A
C617        C622   1.404       .  A
C617        H627   1.083       .  S
C618        C619   1.405       .  A
C618        C623   1.486       .  S
C619        C620   1.393       .  A
C619        H624   1.083       .  S
C620        C621   1.402       .  A
C620        H625   1.084       .  S
C621        C622   1.404       .  A
C622        H626   1.083       .  S
C623        C628   1.407       .  A
C623        C632   1.404       .  A
C628        C629   1.405       .  A
C628        H633   1.083       .  S
C629        C630   1.409       .  A
C629        H634   1.083       .  S
C630        C631   1.407       .  A
C631        C632   1.391       .  A
C631        H635   1.083       .  S
C632        H636   1.083       .  S
C637        C638   1.411       .  A
C637        C642   1.402       .  A
C637        H647   1.082       .  S
C638        C639   1.404       .  A
C638        C643   1.492       .  S
C639        C640   1.394       .  A
C639        H644   1.082       .  S
C640        C641   1.408       .  A
C640        H645   1.083       .  S
C641        C642   1.404       .  A
C642        H646   1.083       .  S
C643        C648   1.405       .  A
C643        C652   1.411       .  A
C648        C649   1.395       .  A
C648        H653   1.082       .  S
C649        C650   1.406       .  A
C649        H654   1.083       .  S
C650        C651   1.404       .  A
C651        C652   1.401       .  A
C651        H655   1.083       .  S
C652        H656   1.082       .  S
C657        C658   1.413       .  A
C657        C662   1.410       .  A
C657        H667   1.083       .  S
C658        C659   1.406       .  A
C658        C663   1.507       .  S
C659        C660   1.405       .  A
C659        H664   1.083       .  S
C660        C661   1.412       .  A
C660        H665   1.083       .  S
C661        C662   1.407       .  A
C662        H666   1.083       .  S
C663        C668   1.414       .  A
C663        C672   1.405       .  A
C668        C669   1.413       .  A
C668        H673   1.083       .  S
C669        C670   1.407       .  A
C669        H674   1.083       .  S
C670        C671   1.410       .  A
C671        C672   1.400       .  A
C671        H675   1.083       .  S
C672        H676   1.083       .  S
C677        C678   1.408       .  A
C677        C682   1.403       .  A
C677        H687   1.082       .  S
C678        C679   1.407       .  A
C678        C683   1.491       .  S
C679        C680   1.395       .  A
C679        H684   1.083       .  S
C680        C681   1.405       .  A
C680        H685   1.083       .  S
C681        C682   1.405       .  A
C682        H686   1.083       .  S
C683        C688   1.411       .  A
C683        C692   1.405       .  A
C688        C689   1.407       .  A
C688        H693   1.083       .  S
C689        C690   1.404       .  A
C689        H694   1.083       .  S
C690        C691   1.402       .  A
C691        C692   1.390       .  A
C691        H695   1.084       .  S
C692        H696   1.082       .  S
C697        C698   1.405       .  A
C697        C702   1.399       .  A
C697        H707   1.082       .  S
C698        C699   1.412       .  A
C698        C703   1.498       .  S
C699        C700   1.404       .  A
C699        H704   1.082       .  S
C700        C701   1.404       .  A
C700        H705   1.083       .  S
C701        C702   1.410       .  A
C702        H706   1.083       .  S
C703        C708   1.413       .  A
C703        C712   1.406       .  A
C708        C709   1.405       .  A
C708        H713   1.082       .  S
C709        C710   1.403       .  A
C709        H714   1.083       .  S
C710        C711   1.405       .  A
C711        C712   1.397       .  A
C711        H715   1.083       .  S
C712        H716   1.082       .  S
C717        C718   1.405       .  A
C717        C722   1.404       .  A
C717        H727   1.083       .  S
C718        C719   1.405       .  A
C718        C723   1.484       .  S
C719        C720   1.393       .  A
C719        H724   1.083       .  S
C720        C721   1.405       .  A
C720        H725   1.083       .  S
C721        C722   1.409       .  A
C722        H726   1.083       .  S
C723        C728   1.406       .  A
C723        C732   1.406       .  A
C728        C729   1.402       .  A
C728        H733   1.083       .  S
C729        C730   1.404       .  A
C729        H734   1.084       .  S
C730        C731   1.400       .  A
C731        C732   1.394       .  A
C731        H735   1.084       .  S
C732        H736   1.083       .  S
C737        C738   1.413       .  A
C737        C742   1.410       .  A
C737        H747   1.082       .  S
C738        C739   1.403       .  A
C738        C743   1.499       .  S
C739        C740   1.394       .  A
C739        H744   1.082       .  S
C740        C741   1.410       .  A
C740        H745   1.083       .  S
C741        C742   1.406       .  A
C742        H746   1.083       .  S
C743        C748   1.405       .  A
C743        C752   1.412       .  A
C748        C749   1.401       .  A
C748        H753   1.082       .  S
C749        C750   1.410       .  A
C749        H754   1.083       .  S
C750        C751   1.406       .  A
C751        C752   1.404       .  A
C751        H755   1.083       .  S
C752        H756   1.082       .  S
C757        C758   1.403       .  A
C757        C762   1.397       .  A
C757        H767   1.083       .  S
C758        C759   1.407       .  A
C758        C763   1.487       .  S
C759        C760   1.403       .  A
C759        H764   1.083       .  S
C760        C761   1.407       .  A
C760        H765   1.083       .  S
C761        C762   1.408       .  A
C762        H766   1.083       .  S
C763        C768   1.408       .  A
C763        C772   1.402       .  A
C768        C769   1.403       .  A
C768        H773   1.083       .  S
C769        C770   1.404       .  A
C769        H774   1.083       .  S
C770        C771   1.409       .  A
C771        C772   1.397       .  A
C771        H775   1.083       .  S
C772        H776   1.083       .  S
C777        C778   1.408       .  A
C777        C782   1.404       .  A
C777        H787   1.083       .  S
C778        C779   1.401       .  A
C778        C783   1.483       .  S
C779        C780   1.391       .  A
C779        H784   1.083       .  S
C780        C781   1.409       .  A
C780        H785   1.083       .  S
C781        C782   1.405       .  A
C782        H786   1.083       .  S
C783        C788   1.407       .  A
C783        C792   1.403       .  A
C788        C789   1.398       .  A
C788        H793   1.083       .  S
C789        C790   1.405       .  A
C789        H794   1.083       .  S
C790        C791   1.408       .  A
C791        C792   1.397       .  A
C791        H795   1.083       .  S
C792        H796   1.083       .  S
C797        C798   1.405       .  A
C797        C802   1.398       .  A
C797        H807   1.083       .  S
C798        C799   1.402       .  A
C798        C803   1.479       .  S
C799        C800   1.395       .  A
C799        H804   1.083       .  S
C800        C801   1.407       .  A
C800        H805   1.083       .  S
C801        C802   1.407       .  A
C802        H806   1.083       .  S
C803        C808   1.406       .  A
C803        C812   1.401       .  A
C808        C809   1.399       .  A
C808        H813   1.083       .  S
C809        C810   1.405       .  A
C809        H814   1.083       .  S
C810        C811   1.409       .  A
C811        C812   1.394       .  A
C811        H815   1.083       .  S
C812        H816   1.083       .  S
C817        C818   1.406       .  A
C817        C822   1.398       .  A
C817        H827   1.082       .  S
C818        C819   1.411       .  A
C818        C823   1.496       .  S
C819        C820   1.402       .  A
C819        H824   1.082       .  S
C820        C821   1.402       .  A
C820        H825   1.083       .  S
C821        C822   1.405       .  A
C822        H826   1.083       .  S
C823        C828   1.411       .  A
C823        C832   1.406       .  A
C828        C829   1.402       .  A
C828        H833   1.082       .  S
C829        C830   1.404       .  A
C829        H834   1.083       .  S
C830        C831   1.406       .  A
C831        C832   1.398       .  A
C831        H835   1.083       .  S
C832        H836   1.082       .  S
C837        C838   1.402       .  A
C837        C842   1.391       .  A
C837        H847   1.082       .  S
C838        C839   1.410       .  A
C838        C843   1.486       .  S
C839        C840   1.401       .  A
C839        H844   1.083       .  S
C840        C841   1.404       .  A
C840        H845   1.083       .  S
C841        C842   1.407       .  A
C842        H846   1.083       .  S
C843        C848   1.409       .  A
C843        C852   1.404       .  A
C848        C849   1.398       .  A
C848        H853   1.083       .  S
C849        C850   1.404       .  A
C849        H854   1.083       .  S
C850        C851   1.406       .  A
C851        C852   1.394       .  A
C851        H855   1.083       .  S
C852        H856   1.083       .  S
C857        C858   1.410       .  A
C857        C862   1.404       .  A
C857        H867   1.083       .  S
C858        C859   1.404       .  A
C858        C863   1.492       .  S
C859        C860   1.395       .  A
C859        H864   1.083       .  S
C860        C861   1.408       .  A
C860        H865   1.083       .  S
C861        C862   1.407       .  A
C862        H866   1.083       .  S
C863        C868   1.404       .  A
C863        C872   1.410       .  A
C868        C869   1.398       .  A
C868        H873   1.083       .  S
C869        C870   1.409       .  A
C869        H874   1.083       .  S
C870        C871   1.404       .  A
C871        C872   1.401       .  A
C871        H875   1.083       .  S
C872        H876   1.083       .  S
C877        C878   1.404       .  A
C877        C882   1.393       .  A
C877        H887   1.083       .  S
C878        C879   1.410       .  A
C878        C883   1.497       .  S
C879        C880   1.414       .  A
C879        H884   1.083       .  S
C880        C881   1.410       .  A
C880        H885   1.083       .  S
C881        C882   1.407       .  A
C882        H886   1.083       .  S
C883        C888   1.404       .  A
C883        C892   1.411       .  A
C888        C889   1.393       .  A
C888        H893   1.083       .  S
C889        C890   1.407       .  A
C889        H894   1.083       .  S
C890        C891   1.410       .  A
C891        C892   1.414       .  A
C891        H895   1.083       .  S
C892        H896   1.083       .  S
C897        C898   1.407       .  A
C897        C902   1.396       .  A
C897        H907   1.083       .  S
C898        C899   1.409       .  A
C898        C903   1.497       .  S
C899        C900   1.410       .  A
C899        H904   1.083       .  S
C900        C901   1.407       .  A
C900        H905   1.083       .  S
C901        C902   1.403       .  A
C902        H906   1.083       .  S
C903        C908   1.404       .  A
C903        C912   1.411       .  A
C908        C909   1.393       .  A
C908        H913   1.083       .  S
C909        C910   1.407       .  A
C909        H914   1.083       .  S
C910        C911   1.409       .  A
C911        C912   1.412       .  A
C911        H915   1.083       .  S
C912        H916   1.083       .  S
C917        C918   1.409       .  A
C917        C922   1.401       .  A
C917        H927   1.082       .  S
C918        C919   1.408       .  A
C918        C923   1.492       .  S
C919        C920   1.394       .  A
C919        H924   1.082       .  S
C920        C921   1.401       .  A
C920        H925   1.084       .  S
C921        C922   1.402       .  A
C922        H926   1.083       .  S
C923        C928   1.409       .  A
C923        C932   1.407       .  A
C928        C929   1.403       .  A
C928        H933   1.082       .  S
C929        C930   1.406       .  A
C929        H934   1.083       .  S
C930        C931   1.404       .  A
C931        C932   1.391       .  A
C931        H935   1.083       .  S
C932        H936   1.082       .  S
C937        C938   1.410       .  A
C937        C942   1.402       .  A
C937        H947   1.082       .  S
C938        C939   1.405       .  A
C938        C943   1.495       .  S
C939        C940   1.400       .  A
C939        H944   1.083       .  S
C940        C941   1.409       .  A
C940        H945   1.083       .  S
C941        C942   1.404       .  A
C942        H946   1.083       .  S
C943        C948   1.403       .  A
C943        C952   1.412       .  A
C948        C949   1.394       .  A
C948        H953   1.082       .  S
C949        C950   1.408       .  A
C949        H954   1.083       .  S
C950        C951   1.406       .  A
C951        C952   1.407       .  A
C951        H955   1.083       .  S
C952        H956   1.083       .  S
C957        C958   1.408       .  A
C957        C962   1.404       .  A
C957        H967   1.083       .  S
C958        C959   1.404       .  A
C958        C963   1.483       .  S
C959        C960   1.388       .  A
C959        H964   1.083       .  S
C960        C961   1.403       .  A
C960        H965   1.084       .  S
C961        C962   1.404       .  A
C962        H966   1.083       .  S
C963        C968   1.406       .  A
C963        C972   1.404       .  A
C968        C969   1.401       .  A
C968        H973   1.083       .  S
C969        C970   1.405       .  A
C969        H974   1.083       .  S
C970        C971   1.404       .  A
C971        C972   1.392       .  A
C971        H975   1.083       .  S
C972        H976   1.083       .  S
C977        C978   1.408       .  A
C977        C982   1.396       .  A
C977        H987   1.082       .  S
C978        C979   1.411       .  A
C978        C983   1.493       .  S
C979        C980   1.397       .  A
C979        H984   1.081       .  S
C980        C981   1.401       .  A
C980        H985   1.083       .  S
C981        C982   1.403       .  A
C982        H986   1.083       .  S
C983        C988   1.412       .  A
C983        C992   1.408       .  A
C988        C989   1.399       .  A
C988        H993   1.081       .  S
C989        C990   1.399       .  A
C989        H994   1.083       .  S
C990        C991   1.401       .  A
C991        C992   1.395       .  A
C991        H995   1.083       .  S
C992        H996   1.082       .  S
C997        C998   1.406       .  A
C997       C1002   1.399       .  A
C997       H1007   1.082       .  S
C998        C999   1.414       .  A
C998       C1003   1.503       .  S
C999       C1000   1.409       .  A
C999       H1004   1.082       .  S
C1000      C1001   1.403       .  A
C1000      H1005   1.083       .  S
C1001      C1002   1.407       .  A
C1002      H1006   1.084       .  S
C1003      C1008   1.412       .  A
C1003      C1012   1.406       .  A
C1008      C1009   1.405       .  A
C1008      H1013   1.082       .  S
C1009      C1010   1.405       .  A
C1009      H1014   1.083       .  S
C1010      C1011   1.410       .  A
C1011      C1012   1.402       .  A
C1011      H1015   1.083       .  S
C1012      H1016   1.082       .  S
C1017      C1018   1.407       .  A
C1017      C1022   1.399       .  A
C1017      H1027   1.083       .  S
C1018      C1019   1.402       .  A
C1018      C1023   1.481       .  S
C1019      C1020   1.395       .  A
C1019      H1024   1.083       .  S
C1020      C1021   1.408       .  A
C1020      H1025   1.083       .  S
C1021      C1022   1.405       .  A
C1022      H1026   1.083       .  S
C1023      C1028   1.401       .  A
C1023      C1032   1.408       .  A
C1028      C1029   1.392       .  A
C1028      H1033   1.083       .  S
C1029      C1030   1.407       .  A
C1029      H1034   1.083       .  S
C1030      C1031   1.405       .  A
C1031      C1032   1.402       .  A
C1031      H1035   1.083       .  S
C1032      H1036   1.083       .  S
C1037      C1038   1.413       .  A
C1037      C1042   1.409       .  A
C1037      H1047   1.082       .  S
C1038      C1039   1.406       .  A
C1038      C1043   1.504       .  S
C1039      C1040   1.401       .  A
C1039      H1044   1.082       .  S
C1040      C1041   1.409       .  A
C1040      H1045   1.083       .  S
C1041      C1042   1.406       .  A
C1042      H1046   1.083       .  S
C1043      C1048   1.413       .  A
C1043      C1052   1.405       .  A
C1048      C1049   1.409       .  A
C1048      H1053   1.082       .  S
C1049      C1050   1.407       .  A
C1049      H1054   1.083       .  S
C1050      C1051   1.410       .  A
C1051      C1052   1.400       .  A
C1051      H1055   1.083       .  S
C1052      H1056   1.082       .  S
C1057      C1058   1.410       .  A
C1057      C1062   1.400       .  A
C1057      H1067   1.082       .  S
C1058      C1059   1.406       .  A
C1058      C1063   1.494       .  S
C1059      C1060   1.397       .  A
C1059      H1064   1.082       .  S
C1060      C1061   1.407       .  A
C1060      H1065   1.083       .  S
C1061      C1062   1.404       .  A
C1062      H1066   1.083       .  S
C1063      C1068   1.405       .  A
C1063      C1072   1.410       .  A
C1068      C1069   1.395       .  A
C1068      H1073   1.082       .  S
C1069      C1070   1.407       .  A
C1069      H1074   1.083       .  S
C1070      C1071   1.405       .  A
C1071      C1072   1.402       .  A
C1071      H1075   1.083       .  S
C1072      H1076   1.082       .  S
C1077      C1078   1.415       .  A
C1077      C1082   1.410       .  A
C1077      H1087   1.082       .  S
C1078      C1079   1.406       .  A
C1078      C1083   1.508       .  S
C1079      C1080   1.401       .  A
C1079      H1084   1.082       .  S
C1080      C1081   1.411       .  A
C1080      H1085   1.083       .  S
C1081      C1082   1.406       .  A
C1082      H1086   1.083       .  S
C1083      C1088   1.415       .  A
C1083      C1092   1.406       .  A
C1088      C1089   1.410       .  A
C1088      H1093   1.082       .  S
C1089      C1090   1.406       .  A
C1089      H1094   1.083       .  S
C1090      C1091   1.410       .  A
C1091      C1092   1.401       .  A
C1091      H1095   1.083       .  S
C1092      H1096   1.082       .  S
C1097      C1098   1.411       .  A
C1097      C1102   1.403       .  A
C1097      H1107   1.082       .  S
C1098      C1099   1.405       .  A
C1098      C1103   1.494       .  S
C1099      C1100   1.397       .  A
C1099      H1104   1.082       .  S
C1100      C1101   1.406       .  A
C1100      H1105   1.083       .  S
C1101      C1102   1.403       .  A
C1102      H1106   1.083       .  S
C1103      C1108   1.405       .  A
C1103      C1112   1.412       .  A
C1108      C1109   1.397       .  A
C1108      H1113   1.083       .  S
C1109      C1110   1.408       .  A
C1109      H1114   1.083       .  S
C1110      C1111   1.403       .  A
C1111      C1112   1.403       .  A
C1111      H1115   1.083       .  S
C1112      H1116   1.082       .  S
C1117      C1118   1.409       .  A
C1117      C1122   1.404       .  A
C1117      H1127   1.082       .  S
C1118      C1119   1.407       .  A
C1118      C1123   1.490       .  S
C1119      C1120   1.393       .  A
C1119      H1124   1.083       .  S
C1120      C1121   1.401       .  A
C1120      H1125   1.084       .  S
C1121      C1122   1.404       .  A
C1122      H1126   1.083       .  S
C1123      C1128   1.408       .  A
C1123      C1132   1.405       .  A
C1128      C1129   1.406       .  A
C1128      H1133   1.083       .  S
C1129      C1130   1.409       .  A
C1129      H1134   1.083       .  S
C1130      C1131   1.404       .  A
C1131      C1132   1.390       .  A
C1131      H1135   1.083       .  S
C1132      H1136   1.083       .  S
C1137      C1138   1.405       .  A
C1137      C1142   1.392       .  A
C1137      H1147   1.083       .  S
C1138      C1139   1.407       .  A
C1138      C1143   1.485       .  S
C1139      C1140   1.403       .  A
C1139      H1144   1.083       .  S
C1140      C1141   1.406       .  A
C1140      H1145   1.083       .  S
C1141      C1142   1.402       .  A
C1142      H1146   1.083       .  S
C1143      C1148   1.405       .  A
C1143      C1152   1.406       .  A
C1148      C1149   1.391       .  A
C1148      H1153   1.083       .  S
C1149      C1150   1.405       .  A
C1149      H1154   1.083       .  S
C1150      C1151   1.407       .  A
C1151      C1152   1.402       .  A
C1151      H1155   1.083       .  S
C1152      H1156   1.083       .  S
C1157      C1158   1.408       .  A
C1157      C1162   1.403       .  A
C1157      H1167   1.083       .  S
C1158      C1159   1.404       .  A
C1158      C1163   1.485       .  S
C1159      C1160   1.393       .  A
C1159      H1164   1.083       .  S
C1160      C1161   1.404       .  A
C1160      H1165   1.083       .  S
C1161      C1162   1.406       .  A
C1162      H1166   1.083       .  S
C1163      C1168   1.404       .  A
C1163      C1172   1.409       .  A
C1168      C1169   1.396       .  A
C1168      H1173   1.083       .  S
C1169      C1170   1.402       .  A
C1169      H1174   1.084       .  S
C1170      C1171   1.400       .  A
C1171      C1172   1.401       .  A
C1171      H1175   1.083       .  S
C1172      H1176   1.083       .  S
C1177      C1178   1.411       .  A
C1177      C1182   1.402       .  A
C1177      H1187   1.082       .  S
C1178      C1179   1.404       .  A
C1178      C1183   1.494       .  S
C1179      C1180   1.397       .  A
C1179      H1184   1.082       .  S
C1180      C1181   1.409       .  A
C1180      H1185   1.083       .  S
C1181      C1182   1.405       .  A
C1182      H1186   1.083       .  S
C1183      C1188   1.403       .  A
C1183      C1192   1.412       .  A
C1188      C1189   1.394       .  A
C1188      H1193   1.082       .  S
C1189      C1190   1.409       .  A
C1189      H1194   1.083       .  S
C1190      C1191   1.405       .  A
C1191      C1192   1.406       .  A
C1191      H1195   1.083       .  S
C1192      H1196   1.082       .  S
C1197      C1198   1.414       .  A
C1197      C1202   1.406       .  A
C1197      H1207   1.082       .  S
C1198      C1199   1.405       .  A
C1198      C1203   1.499       .  S
C1199      C1200   1.395       .  A
C1199      H1204   1.082       .  S
C1200      C1201   1.405       .  A
C1200      H1205   1.083       .  S
C1201      C1202   1.403       .  A
C1202      H1206   1.083       .  S
C1203      C1208   1.406       .  A
C1203      C1212   1.412       .  A
C1208      C1209   1.400       .  A
C1208      H1213   1.082       .  S
C1209      C1210   1.409       .  A
C1209      H1214   1.083       .  S
C1210      C1211   1.402       .  A
C1211      C1212   1.401       .  A
C1211      H1215   1.083       .  S
C1212      H1216   1.082       .  S
C1217      C1218   1.405       .  A
C1217      C1222   1.398       .  A
C1217      H1227   1.083       .  S
C1218      C1219   1.406       .  A
C1218      C1223   1.488       .  S
C1219      C1220   1.404       .  A
C1219      H1224   1.083       .  S
C1220      C1221   1.408       .  A
C1220      H1225   1.083       .  S
C1221      C1222   1.406       .  A
C1222      H1226   1.083       .  S
C1223      C1228   1.403       .  A
C1223      C1232   1.409       .  A
C1228      C1229   1.394       .  A
C1228      H1233   1.083       .  S
C1229      C1230   1.404       .  A
C1229      H1234   1.083       .  S
C1230      C1231   1.405       .  A
C1231      C1232   1.407       .  A
C1231      H1235   1.083       .  S
C1232      H1236   1.083       .  S
C1237      C1238   1.404       .  A
C1237      C1242   1.402       .  A
C1237      H1247   1.083       .  S
C1238      C1239   1.405       .  A
C1238      C1243   1.483       .  S
C1239      C1240   1.395       .  A
C1239      H1244   1.083       .  S
C1240      C1241   1.406       .  A
C1240      H1245   1.083       .  S
C1241      C1242   1.408       .  A
C1242      H1246   1.083       .  S
C1243      C1248   1.405       .  A
C1243      C1252   1.406       .  A
C1248      C1249   1.395       .  A
C1248      H1253   1.083       .  S
C1249      C1250   1.401       .  A
C1249      H1254   1.084       .  S
C1250      C1251   1.404       .  A
C1251      C1252   1.402       .  A
C1251      H1255   1.083       .  S
C1252      H1256   1.083       .  S
C1257      C1258   1.408       .  A
C1257      C1262   1.400       .  A
C1257      H1267   1.083       .  S
C1258      C1259   1.404       .  A
C1258      C1263   1.490       .  S
C1259      C1260   1.400       .  A
C1259      H1264   1.083       .  S
C1260      C1261   1.409       .  A
C1260      H1265   1.083       .  S
C1261      C1262   1.405       .  A
C1262      H1266   1.083       .  S
C1263      C1268   1.402       .  A
C1263      C1272   1.410       .  A
C1268      C1269   1.393       .  A
C1268      H1273   1.083       .  S
C1269      C1270   1.407       .  A
C1269      H1274   1.083       .  S
C1270      C1271   1.407       .  A
C1271      C1272   1.407       .  A
C1271      H1275   1.083       .  S
C1272      H1276   1.083       .  S
C1277      C1278   1.405       .  A
C1277      C1282   1.396       .  A
C1277      H1287   1.083       .  S
C1278      C1279   1.408       .  A
C1278      C1283   1.482       .  S
C1279      C1280   1.393       .  A
C1279      H1284   1.082       .  S
C1280      C1281   1.400       .  A
C1280      H1285   1.083       .  S
C1281      C1282   1.404       .  A
C1282      H1286   1.083       .  S
C1283      C1288   1.408       .  A
C1283      C1292   1.405       .  A
C1288      C1289   1.398       .  A
C1288      H1293   1.082       .  S
C1289      C1290   1.402       .  A
C1289      H1294   1.083       .  S
C1290      C1291   1.401       .  A
C1291      C1292   1.391       .  A
C1291      H1295   1.084       .  S
C1292      H1296   1.083       .  S
C1297      C1298   1.409       .  A
C1297      C1302   1.403       .  A
C1297      H1307   1.083       .  S
C1298      C1299   1.403       .  A
C1298      C1303   1.490       .  S
C1299      C1300   1.396       .  A
C1299      H1304   1.083       .  S
C1300      C1301   1.409       .  A
C1300      H1305   1.083       .  S
C1301      C1302   1.406       .  A
C1302      H1306   1.083       .  S
C1303      C1308   1.403       .  A
C1303      C1312   1.409       .  A
C1308      C1309   1.396       .  A
C1308      H1313   1.083       .  S
C1309      C1310   1.409       .  A
C1309      H1314   1.083       .  S
C1310      C1311   1.405       .  A
C1311      C1312   1.402       .  A
C1311      H1315   1.083       .  S
C1312      H1316   1.083       .  S
C1317      C1318   1.407       .  A
C1317      C1322   1.397       .  A
C1317      H1327   1.082       .  S
C1318      C1319   1.410       .  A
C1318      C1323   1.496       .  S
C1319      C1320   1.402       .  A
C1319      H1324   1.082       .  S
C1320      C1321   1.405       .  A
C1320      H1325   1.083       .  S
C1321      C1322   1.405       .  A
C1322      H1326   1.083       .  S
C1323      C1328   1.411       .  A
C1323      C1332   1.407       .  A
C1328      C1329   1.401       .  A
C1328      H1333   1.082       .  S
C1329      C1330   1.402       .  A
C1329      H1334   1.083       .  S
C1330      C1331   1.407       .  A
C1331      C1332   1.398       .  A
C1331      H1335   1.083       .  S
C1332      H1336   1.082       .  S
C1337      C1338   1.406       .  A
C1337      C1342   1.399       .  A
C1337      H1347   1.083       .  S
C1338      C1339   1.411       .  A
C1338      C1343   1.502       .  S
C1339      C1340   1.412       .  A
C1339      H1344   1.083       .  S
C1340      C1341   1.409       .  A
C1340      H1345   1.083       .  S
C1341      C1342   1.408       .  A
C1342      H1346   1.083       .  S
C1343      C1348   1.408       .  A
C1343      C1352   1.411       .  A
C1348      C1349   1.400       .  A
C1348      H1353   1.083       .  S
C1349      C1350   1.405       .  A
C1349      H1354   1.083       .  S
C1350      C1351   1.406       .  A
C1351      C1352   1.410       .  A
C1351      H1355   1.083       .  S
C1352      H1356   1.083       .  S
C1357      C1358   1.405       .  A
C1357      C1362   1.395       .  A
C1357      H1367   1.083       .  S
C1358      C1359   1.406       .  A
C1358      C1363   1.484       .  S
C1359      C1360   1.397       .  A
C1359      H1364   1.083       .  S
C1360      C1361   1.405       .  A
C1360      H1365   1.083       .  S
C1361      C1362   1.405       .  A
C1362      H1366   1.083       .  S
C1363      C1368   1.409       .  A
C1363      C1372   1.403       .  A
C1368      C1369   1.401       .  A
C1368      H1373   1.083       .  S
C1369      C1370   1.402       .  A
C1369      H1374   1.083       .  S
C1370      C1371   1.404       .  A
C1371      C1372   1.392       .  A
C1371      H1375   1.084       .  S
C1372      H1376   1.083       .  S
C1377      C1378   1.411       .  A
C1377      C1382   1.413       .  A
C1377      H1387   1.083       .  S
C1378      C1379   1.407       .  A
C1378      C1383   1.502       .  S
C1379      C1380   1.396       .  A
C1379      H1384   1.083       .  S
C1380      C1381   1.405       .  A
C1380      H1385   1.083       .  S
C1381      C1382   1.410       .  A
C1382      H1386   1.083       .  S
C1383      C1388   1.412       .  A
C1383      C1392   1.406       .  A
C1388      C1389   1.412       .  A
C1388      H1393   1.082       .  S
C1389      C1390   1.408       .  A
C1389      H1394   1.083       .  S
C1390      C1391   1.406       .  A
C1391      C1392   1.396       .  A
C1391      H1395   1.083       .  S
C1392      H1396   1.083       .  S
C1397      C1398   1.403       .  A
C1397      C1402   1.395       .  A
C1397      H1407   1.083       .  S
C1398      C1399   1.407       .  A
C1398      C1403   1.481       .  S
C1399      C1400   1.402       .  A
C1399      H1404   1.083       .  S
C1400      C1401   1.402       .  A
C1400      H1405   1.083       .  S
C1401      C1402   1.402       .  A
C1402      H1406   1.084       .  S
C1403      C1408   1.402       .  A
C1403      C1412   1.406       .  A
C1408      C1409   1.396       .  A
C1408      H1413   1.083       .  S
C1409      C1410   1.408       .  A
C1409      H1414   1.083       .  S
C1410      C1411   1.405       .  A
C1411      C1412   1.401       .  A
C1411      H1415   1.083       .  S
C1412      H1416   1.083       .  S
C1417      C1418   1.405       .  A
C1417      C1422   1.399       .  A
C1417      H1427   1.082       .  S
C1418      C1419   1.413       .  A
C1418      C1423   1.501       .  S
C1419      C1420   1.404       .  A
C1419      H1424   1.082       .  S
C1420      C1421   1.404       .  A
C1420      H1425   1.083       .  S
C1421      C1422   1.409       .  A
C1422      H1426   1.083       .  S
C1423      C1428   1.414       .  A
C1423      C1432   1.406       .  A
C1428      C1429   1.406       .  A
C1428      H1433   1.082       .  S
C1429      C1430   1.402       .  A
C1429      H1434   1.083       .  S
C1430      C1431   1.405       .  A
C1431      C1432   1.398       .  A
C1431      H1435   1.084       .  S
C1432      H1436   1.082       .  S
C1437      C1438   1.407       .  A
C1437      C1442   1.402       .  A
C1437      H1447   1.083       .  S
C1438      C1439   1.403       .  A
C1438      C1443   1.486       .  S
C1439      C1440   1.397       .  A
C1439      H1444   1.083       .  S
C1440      C1441   1.407       .  A
C1440      H1445   1.083       .  S
C1441      C1442   1.407       .  A
C1442      H1446   1.083       .  S
C1443      C1448   1.403       .  A
C1443      C1452   1.408       .  A
C1448      C1449   1.396       .  A
C1448      H1453   1.083       .  S
C1449      C1450   1.408       .  A
C1449      H1454   1.083       .  S
C1450      C1451   1.405       .  A
C1451      C1452   1.402       .  A
C1451      H1455   1.083       .  S
C1452      H1456   1.083       .  S
C1457      C1458   1.402       .  A
C1457      C1462   1.392       .  A
C1457      H1467   1.083       .  S
C1458      C1459   1.405       .  A
C1458      C1463   1.472       .  S
C1459      C1460   1.399       .  A
C1459      H1464   1.083       .  S
C1460      C1461   1.401       .  A
C1460      H1465   1.083       .  S
C1461      C1462   1.401       .  A
C1462      H1466   1.084       .  S
C1463      C1468   1.403       .  A
C1463      C1472   1.402       .  A
C1468      C1469   1.397       .  A
C1468      H1473   1.083       .  S
C1469      C1470   1.406       .  A
C1469      H1474   1.083       .  S
C1470      C1471   1.405       .  A
C1471      C1472   1.393       .  A
C1471      H1475   1.083       .  S
C1472      H1476   1.083       .  S
C1477      C1478   1.403       .  A
C1477      C1482   1.394       .  A
C1477      H1487   1.082       .  S
C1478      C1479   1.413       .  A
C1478      C1483   1.496       .  S
C1479      C1480   1.406       .  A
C1479      H1484   1.082       .  S
C1480      C1481   1.405       .  A
C1480      H1485   1.083       .  S
C1481      C1482   1.409       .  A
C1482      H1486   1.083       .  S
C1483      C1488   1.412       .  A
C1483      C1492   1.404       .  A
C1488      C1489   1.404       .  A
C1488      H1493   1.082       .  S
C1489      C1490   1.405       .  A
C1489      H1494   1.083       .  S
C1490      C1491   1.409       .  A
C1491      C1492   1.397       .  A
C1491      H1495   1.083       .  S
C1492      H1496   1.082       .  S
C1497      C1498   1.406       .  A
C1497      C1502   1.404       .  A
C1497      H1507   1.083       .  S
C1498      C1499   1.400       .  A
C1498      C1503   1.479       .  S
C1499      C1500   1.393       .  A
C1499      H1504   1.084       .  S
C1500      C1501   1.409       .  A
C1500      H1505   1.083       .  S
C1501      C1502   1.408       .  A
C1502      H1506   1.083       .  S
C1503      C1508   1.405       .  A
C1503      C1512   1.403       .  A
C1508      C1509   1.403       .  A
C1508      H1513   1.083       .  S
C1509      C1510   1.406       .  A
C1509      H1514   1.083       .  S
C1510      C1511   1.403       .  A
C1511      C1512   1.393       .  A
C1511      H1515   1.083       .  S
C1512      H1516   1.083       .  S
