geometry optimzed in LAMMPS
_audit_creation_date              2020-11-30 
_audit_creation_method            'lammps2cif' 
_symmetry_space_group_name_H-M    'P1' 
_symmetry_Int_Tables_number       1 
_symmetry_cell_setting            triclinic 
loop_ 
_symmetry_equiv_pos_as_xyz 
  x,y,z 
_cell_length_a                    38.71192148583382 
_cell_length_b                    38.9591406236541 
_cell_length_c                    39.06827086007974 
_cell_angle_alpha                 89.52224567358786 
_cell_angle_beta                  89.72925588722742 
_cell_angle_gamma                 89.51179675496667 
loop_ 
_atom_site_label 
_atom_site_type_symbol 
_atom_site_fract_x 
_atom_site_fract_y 
_atom_site_fract_z 
_atom_site_charge 
O1          O  0.68261524  0.56392980  0.63009319    -0.79440
O2          O  0.60701544  0.63180395  0.53151517    -0.64130
O3          O  0.64744690  0.61810974  0.61642626    -1.10730
C4          C  0.54189912  0.57357384  0.64654683     1.07450
O5          O  0.56606223  0.66155403  0.55827657    -0.77340
O6          O  0.57279885  0.66029197  0.63196019    -0.64920
Ni7        Ni  0.69491657  0.60856599  0.61593675     1.34870
C8          C  0.58454132  0.64810569  0.66024288     0.86180
O9          O  0.66724931  0.65138266  0.55679198    -0.77880
O10         O  0.70324969  0.65511135  0.60084407    -0.88150
C11         C  0.58187073  0.65239449  0.53074738     0.85760
O12         O  0.69910259  0.59141881  0.57047309    -0.66350
O13         O  0.53433592  0.60180502  0.63123772    -0.85640
C14         C  0.67648310  0.57145992  0.55892405     0.86590
C15         C  0.68738133  0.66894969  0.57551849     1.08160
H16         H  0.58372373  0.58286653  0.57705159     0.39960
O17         O  0.59008626  0.60179773  0.59139030    -1.08300
O18         O  0.59731775  0.61840144  0.66259798    -0.64950
Ni19       Ni  0.61296588  0.58540968  0.63129363     1.26350
O20         O  0.64536520  0.58157704  0.55764481    -0.65180
O21         O  0.57236936  0.55939240  0.64551716    -0.77470
C22         C  0.67337155  0.56138203  0.66085447     0.85970
O23         O  0.64178658  0.56786175  0.66850502    -0.64650
Ni24       Ni  0.55223693  0.63169357  0.59657554     1.27450
Ni25       Ni  0.62845651  0.62544330  0.57341113     1.26060
H26         H  0.64480986  0.63922298  0.62900772     0.40510
O27         O  0.91123737  0.64609464  0.29812755    -0.79440
O28         O  0.84551837  0.54643515  0.37868153    -0.64130
O29         O  0.85499039  0.63113513  0.33333455    -1.10730
C30         C  0.90557269  0.66277210  0.43575808     1.07450
O31         O  0.81714560  0.57410325  0.41959678    -0.77340
O32         O  0.81607206  0.64587453  0.41435854    -0.64920
Ni33       Ni  0.86735552  0.62888701  0.28675641     1.34870
C34         C  0.82402655  0.67533272  0.40238371     0.86180
O35         O  0.82455916  0.56879164  0.31701055    -0.77880
O36         O  0.82265424  0.61040245  0.27735447    -0.88150
C37         C  0.82551459  0.54625589  0.40425552     0.85760
O38         O  0.88902253  0.58458396  0.28472637    -0.66350
O39         O  0.87877332  0.64686931  0.44668275    -0.85640
C40         C  0.90713669  0.57261862  0.30898650     0.86590
C41         C  0.80905931  0.58462445  0.29255977     1.08160
H42         H  0.89477753  0.59564152  0.39628672     0.39960
O43         O  0.87400824  0.60852035  0.39096343    -1.08300
O44         O  0.85075055  0.67989309  0.38382880    -0.64950
Ni45       Ni  0.88637109  0.64909102  0.36649911     1.26350
O46         O  0.89496832  0.57211966  0.33909577    -0.65180
O47         O  0.91489834  0.66415359  0.40399755    -0.77470
C48         C  0.91316015  0.67697776  0.30688170     0.85970
O49         O  0.90138168  0.68614823  0.33614938    -0.64650
Ni50       Ni  0.84802344  0.61176446  0.43129241     1.27450
Ni51       Ni  0.85015438  0.58807210  0.35455213     1.26060
H52         H  0.83318202  0.64326939  0.33494703     0.40510
O53         O  0.91789293  0.35109618  0.18018117    -0.79440
O54         O  0.86416593  0.45268850  0.09368040    -0.64130
O55         O  0.86875343  0.36674272  0.13615173    -1.10730
C56         C  0.93410400  0.33771092  0.04086729     1.07450
O57         O  0.84540438  0.42819097  0.04651067    -0.77340
O58         O  0.84292703  0.35522694  0.05109897    -0.64920
Ni59       Ni  0.87191364  0.36700928  0.18410868     1.34870
C60         C  0.84930676  0.32608286  0.06522000     0.86180
O61         O  0.83234573  0.42757270  0.14920733    -0.77880
O62         O  0.82537901  0.38431248  0.18648319    -0.88150
C63         C  0.85207403  0.45505096  0.06392583     0.85760
O64         O  0.89086901  0.41160833  0.19098785    -0.66350
O65         O  0.90885235  0.35430166  0.02764282    -0.85640
C66         C  0.91270441  0.42426564  0.17037898     0.86590
C67         C  0.81365396  0.41068141  0.17052913     1.08160
H68         H  0.91682727  0.40555179  0.08118947     0.39960
O69         O  0.89611894  0.39193790  0.08291268    -1.08300
O70         O  0.87446216  0.32111236  0.08542376    -0.64950
Ni71       Ni  0.90632604  0.35087016  0.10758340     1.26350
O72         O  0.90592877  0.42596251  0.13885778    -0.65180
O73         O  0.94031799  0.33661694  0.07337269    -0.77470
C74         C  0.92428917  0.32121072  0.16983054     0.85970
O75         O  0.91817693  0.31313796  0.13868766    -0.64650
Ni76       Ni  0.87679414  0.38959709  0.03912522     1.27450
Ni77       Ni  0.86534182  0.41025269  0.11591526     1.26060
H78         H  0.84798763  0.35439714  0.13070169     0.40510
C79         C  0.74448498  0.61049732  0.99823286     0.04580
C80         C  0.77732172  0.59996110  0.00977168    -0.11570
C81         C  0.78577763  0.56511566  0.01098243     0.02080
C82         C  0.76151368  0.54083973  0.00173209    -0.10090
C83         C  0.72962507  0.55016597  0.98833352     0.04570
C84         C  0.72048332  0.58546598  0.98721850    -0.09520
H85         H  0.79602423  0.61872961  0.01790930     0.10170
H86         H  0.76791966  0.51378892  0.00473492     0.07700
H87         H  0.69566677  0.59343235  0.97708884     0.07540
C88         C  0.03628663  0.51701447  0.26940051     0.04580
C89         C  0.01941130  0.49328099  0.24939864    -0.11570
C90         C  0.03708961  0.47190448  0.22706611     0.02080
C91         C  0.07339032  0.47312708  0.22532338    -0.10090
C92         C  0.09165581  0.49635956  0.24618795     0.04570
C93         C  0.07272217  0.51893552  0.26789519    -0.09520
H94         H  0.99133895  0.49243134  0.25015693     0.10170
H95         H  0.08724230  0.45650071  0.20781060     0.07700
H96         H  0.08609294  0.53777324  0.28302260     0.07540
O97         O  0.61673799  0.30376340  0.91810182    -0.79440
O98         O  0.53441942  0.40964965  0.85470490    -0.64130
O99         O  0.61014721  0.35067457  0.86699664    -1.10730
C100        C  0.65095240  0.44020948  0.93417641     1.07450
O101        O  0.56732728  0.45357037  0.84055634    -0.77340
O102        O  0.63943745  0.43673465  0.84320385    -0.64920
Ni103      Ni  0.60001049  0.30341825  0.87255837     1.34870
C104        C  0.66493838  0.41675591  0.85022017     0.86180
O105        O  0.55071464  0.35021363  0.82567720    -0.77880
O106        O  0.58292075  0.30234072  0.82650317    -0.88150
C107        C  0.53745647  0.43997235  0.84401563     0.85760
O108        O  0.55452045  0.30619126  0.89224130    -0.66350
O109        O  0.63835106  0.45745289  0.90925826    -0.85640
C110        C  0.54229007  0.33172418  0.90825753     0.86590
C111        C  0.56194740  0.32281463  0.81138759     1.08160
H112        H  0.57877704  0.41214566  0.91137857     0.39960
O113        O  0.59342297  0.40864680  0.89158559    -1.08300
O114        O  0.66404625  0.39393550  0.87365748    -0.64950
Ni115      Ni  0.62892902  0.37679704  0.90405727     1.26350
O116        O  0.54709837  0.36199948  0.89810171    -0.65180
O117        O  0.64711160  0.40757189  0.93846046    -0.77470
C118        C  0.64784384  0.31023596  0.92486456     0.85970
O119        O  0.66046741  0.33979378  0.91757399    -0.64650
Ni120      Ni  0.60421604  0.45273276  0.87463120     1.27450
Ni121      Ni  0.57175716  0.37963439  0.85951279     1.26060
H122        H  0.62518363  0.35259285  0.84728047     0.40510
O123        O  0.43372622  0.10596839  0.79655407    -0.79440
O124        O  0.34451440  0.19358470  0.86844515    -0.64130
O125        O  0.39376945  0.11289153  0.85087023    -1.10730
C126        C  0.29448980  0.08660544  0.79158499     1.07450
O127        O  0.29964255  0.16380571  0.88771790    -0.77340
O128        O  0.31593490  0.09177040  0.88492866    -0.64920
Ni129      Ni  0.44155683  0.11843703  0.84258368     1.34870
C130        C  0.32957240  0.06430046  0.87298069     0.86180
O131        O  0.40533841  0.17102681  0.89069284    -0.77880
O132        O  0.44762618  0.13170833  0.88965958    -0.88150
C133        C  0.31555636  0.19232086  0.88313806     0.85760
O134        O  0.44220092  0.16504250  0.82663820    -0.66350
O135        O  0.28478612  0.09093956  0.82258552    -0.85640
C136        C  0.41785101  0.17780677  0.80902416     0.86590
C137        C  0.43009515  0.15475928  0.90532741     1.08160
H138        H  0.33007900  0.15214509  0.81348062     0.39960
O139        O  0.33555194  0.13634439  0.83192411    -1.08300
O140        O  0.34495951  0.06375602  0.84422706    -0.64950
Ni141      Ni  0.36264692  0.09946692  0.81490943     1.26350
O142        O  0.38716424  0.17595387  0.81981467    -0.65180
O143        O  0.32650965  0.08885626  0.78234311    -0.77470
C144        C  0.42577997  0.07529532  0.79093113     0.85970
O145        O  0.39493704  0.06534735  0.79717815    -0.64650
Ni146      Ni  0.29455394  0.12599248  0.85534635     1.27450
Ni147      Ni  0.37014682  0.15390092  0.86055685     1.26060
H148        H  0.39144681  0.09764934  0.87034156     0.40510
C149        C  0.46631093  0.21693704  0.02902558     0.04580
C150        C  0.46720600  0.21742200  0.06509549    -0.11570
C151        C  0.47709188  0.24778087  0.08231190     0.02080
C152        C  0.48568698  0.27731879  0.06267493    -0.10090
C153        C  0.48433892  0.27645268  0.02669340     0.04570
C154        C  0.47522328  0.24617031  0.01065355    -0.09520
H155        H  0.45986235  0.19477310  0.07954789     0.10170
H156        H  0.49371820  0.30058605  0.07525295     0.07700
H157        H  0.47511610  0.24516507  0.98286718     0.07540
C158        C  0.50041637  0.28340327  0.68495409     0.04580
C159        C  0.50485063  0.28037995  0.64909093    -0.11570
C160        C  0.48248452  0.25899582  0.62998820     0.02080
C161        C  0.45834319  0.23836331  0.64804651    -0.10090
C162        C  0.45409437  0.24216708  0.68371673     0.04570
C163        C  0.47308004  0.26670878  0.70078917    -0.09520
H164        H  0.52574737  0.29375570  0.63636515     0.10170
H165        H  0.44352731  0.21929335  0.63461350     0.07700
H166        H  0.47007913  0.26886890  0.72838746     0.07540
C167        C  0.59768575  0.97090348  0.73746808     0.04580
C168        C  0.58078507  0.94560279  0.71784742    -0.11570
C169        C  0.54440438  0.94398672  0.71826331     0.02080
C170        C  0.52561522  0.96718359  0.73773757    -0.10090
C171        C  0.54150773  0.99205585  0.75699726     0.04570
C172        C  0.57770920  0.99447319  0.75672507    -0.09520
H173        H  0.59566166  0.92757271  0.70268713     0.10170
H174        H  0.49754716  0.96646066  0.73709363     0.07700
H175        H  0.59017650  0.01453098  0.77106475     0.07540
C176        C  0.91691762  0.02643121  0.20337555     0.04580
C177        C  0.93715267  0.00190614  0.21989661    -0.11570
C178        C  0.92660795  0.98663935  0.25021838     0.02080
C179        C  0.89224384  0.99129755  0.26135269    -0.10090
C180        C  0.86934312  0.01271844  0.24252688     0.04570
C181        C  0.88247357  0.03189739  0.21429472    -0.09520
H182        H  0.96382440  0.99870899  0.21163484     0.10170
H183        H  0.88326303  0.97808274  0.28417922     0.07700
H184        H  0.86607469  0.05005493  0.20076245     0.07540
C185        C  0.24254403  0.35371011  0.98589943     0.04580
C186        C  0.25914103  0.33949969  0.95695752    -0.11570
C187        C  0.25859866  0.30388273  0.95196665     0.02080
C188        C  0.24344464  0.28269748  0.97637268    -0.10090
C189        C  0.22580853  0.29592992  0.00418561     0.04570
C190        C  0.22491848  0.33175738  0.00918106    -0.09520
H191        H  0.27192257  0.35596863  0.93844663     0.10170
H192        H  0.24391067  0.25505745  0.97272259     0.07700
H193        H  0.21067230  0.34239353  0.03058708     0.07540
C194        C  0.26866433  0.89144771  0.96992053     0.04580
C195        C  0.29104741  0.90925745  0.94714349    -0.11570
C196        C  0.29034581  0.94538694  0.94559712     0.02080
C197        C  0.26681538  0.96336760  0.96551160    -0.10090
C198        C  0.24448662  0.94700508  0.98808626     0.04570
C199        C  0.24513521  0.91068443  0.99039312    -0.09520
H200        H  0.30864784  0.89512341  0.93074451     0.10170
H201        H  0.26537615  0.99111979  0.96270854     0.07700
H202        H  0.22728902  0.89758211  0.00734895     0.07540
C203        C  0.27613528  0.01407213  0.19409033     0.04580
C204        C  0.26051476  0.98832251  0.21321723    -0.11570
C205        C  0.27780602  0.97133019  0.23923810     0.02080
C206        C  0.31264382  0.97830850  0.24536418    -0.10090
C207        C  0.33015934  0.00255821  0.22485158     0.04570
C208        C  0.31146282  0.02136866  0.19951860    -0.09520
H209        H  0.23309709  0.98354721  0.20988270     0.10170
H210        H  0.32600582  0.96504511  0.26596095     0.07700
H211        H  0.32412723  0.04102736  0.18439835     0.07540
C212        C  0.00654161  0.24414868  0.87592720     0.04580
C213        C  0.00222619  0.27365042  0.89640505    -0.11570
C214        C  0.00792201  0.27198439  0.93197942     0.02080
C215        C  0.01963796  0.24153820  0.94644101    -0.10090
C216        C  0.02042195  0.21120398  0.92788110     0.04570
C217        C  0.01465761  0.21233530  0.89214557    -0.09520
H218        H  0.99222988  0.29718206  0.88508965     0.10170
H219        H  0.02390485  0.24040968  0.97389249     0.07700
H220        H  0.01591817  0.18896217  0.87737060     0.07540
C221        C  0.00069729  0.24807776  0.34364167     0.04580
C222        C  0.97364816  0.26262857  0.32384131    -0.11570
C223        C  0.96959076  0.25258924  0.28948485     0.02080
C224        C  0.99149532  0.22787172  0.27599318    -0.10090
C225        C  0.02158817  0.21854828  0.29291827     0.04570
C226        C  0.02589003  0.22734883  0.32738318    -0.09520
H227        H  0.95645381  0.28170298  0.33480395     0.10170
H228        H  0.98862152  0.22074820  0.24929612     0.07700
H229        H  0.04853569  0.21858110  0.34121121     0.07540
O230        O  0.14017984  0.03104249  0.07210653    -0.79440
O231        O  0.09087044  0.13238454  0.17361548    -0.64130
O232        O  0.09603528  0.08286138  0.09197722    -1.10730
C233        C  0.15413928  0.17939488  0.05595608     1.07450
O234        O  0.06566204  0.17501896  0.14503770    -0.77340
O235        O  0.06241538  0.16062189  0.07146453    -0.64920
Ni236      Ni  0.09745422  0.03451953  0.09548709     1.34870
C237        C  0.07255400  0.14660970  0.04342170     0.86180
O238        O  0.06391237  0.07333388  0.15686129    -0.77880
O239        O  0.05237344  0.03569942  0.11701723    -0.88150
C240        C  0.07530369  0.16087445  0.17343946     0.85760
O241        O  0.12433591  0.03232542  0.13721251    -0.66350
O242        O  0.12496422  0.19100826  0.06640292    -0.85640
C243        C  0.14453500  0.05573059  0.14773114     0.86590
C244        C  0.04260881  0.05389091  0.14215396     1.08160
H245        H  0.13925349  0.14511794  0.12539435     0.39960
O246        O  0.11910985  0.13982292  0.11193709    -1.08300
O247        O  0.10058869  0.12959528  0.04172026    -0.64950
Ni248      Ni  0.13237937  0.11201085  0.07483929     1.26350
O249        O  0.13462718  0.08671369  0.14906425    -0.65180
O250        O  0.16401195  0.14766910  0.05943931    -0.77470
C251        C  0.15343825  0.04699487  0.04696551     0.85970
O252        O  0.14855986  0.07919096  0.04090525    -0.64650
Ni253      Ni  0.09466138  0.18068692  0.10384577     1.27450
Ni254      Ni  0.09215832  0.10653550  0.13389989     1.26060
H255        H  0.07510316  0.08778266  0.07948996     0.40510
O256        O  0.39636429  0.82180755  0.54088234    -0.79440
O257        O  0.29630754  0.87355678  0.63653502    -0.64130
O258        O  0.37943271  0.87004390  0.58705904    -1.10730
C259        C  0.41414085  0.80097876  0.67885009     1.07450
O260        O  0.32396516  0.89002717  0.68263386    -0.77340
O261        O  0.39714681  0.88939362  0.67856728    -0.64920
Ni262      Ni  0.37584716  0.86600720  0.53893868     1.34870
C263        C  0.42526980  0.88488755  0.66179747     0.86180
O264        O  0.31695434  0.90599413  0.57987196    -0.77880
O265        O  0.35506739  0.91075147  0.53698468    -0.88150
C266        C  0.29576062  0.88519894  0.66648946     0.85760
O267        O  0.33239169  0.84302249  0.53509889    -0.66350
O268        O  0.39554279  0.82241431  0.69527620    -0.85640
C269        C  0.31900139  0.82430368  0.55819552     0.86590
C270        C  0.33054588  0.92300218  0.55521386     1.08160
H271        H  0.34519602  0.82006316  0.64238917     0.39960
O272        O  0.35815671  0.84115156  0.64144876    -1.08300
O273        O  0.42816346  0.86464482  0.63663944    -0.64950
Ni274      Ni  0.39827886  0.83314791  0.61420666     1.26350
O275        O  0.31908981  0.83349240  0.58902175    -0.65180
O276        O  0.41579367  0.79885539  0.64595375    -0.77470
C277        C  0.42724364  0.81834405  0.55046305     0.85970
O278        O  0.43545784  0.82429964  0.58156055    -0.64650
Ni279      Ni  0.36116730  0.85636456  0.68689477     1.27450
Ni280      Ni  0.33727302  0.87284842  0.61093997     1.26060
H281        H  0.39215966  0.89075993  0.59147935     0.40510
O282        O  0.17931977  0.91067171  0.34833568    -0.79440
O283        O  0.07735013  0.87009852  0.44710485    -0.64130
O284        O  0.12885459  0.86650163  0.36606013    -1.10730
C285        C  0.04005878  0.93746891  0.32673956     1.07450
O286        O  0.03240024  0.85128348  0.41846324    -0.77340
O287        O  0.03764077  0.84927030  0.34537292    -0.64920
Ni288      Ni  0.17734914  0.86719558  0.37026065     1.34870
C289        C  0.05523253  0.85317155  0.31778334     0.86180
O290        O  0.13366246  0.83387479  0.43054810    -0.77880
O291        O  0.17567118  0.82319946  0.39271007    -0.88150
C292        C  0.04748839  0.85761740  0.44686066     0.85760
O293        O  0.18178199  0.89161504  0.41250545    -0.66350
O294        O  0.02243309  0.91652239  0.34482637    -0.85640
C295        C  0.16008545  0.91357775  0.42339119     0.86590
C296        C  0.15683526  0.81394979  0.41799937     1.08160
H297        H  0.07392107  0.92010147  0.39626219     0.39960
O298        O  0.07492363  0.89845672  0.38435839    -1.08300
O299        O  0.08113687  0.87272889  0.31557228    -0.64950
Ni300      Ni  0.10366716  0.90394355  0.34542496     1.26350
O301        O  0.12815551  0.90711372  0.42343695    -0.65180
O302        O  0.07335241  0.93885725  0.32617618    -0.77470
C303        C  0.16877863  0.91657083  0.31831150     0.85970
O304        O  0.13761475  0.91070297  0.30967442    -0.64650
Ni305      Ni  0.02919293  0.88351037  0.38017309     1.27450
Ni306      Ni  0.10422459  0.86729368  0.40757212     1.26060
H307        H  0.12313303  0.84549271  0.35448266     0.40510
C308        C  0.98371078  0.74689998  0.60441995     0.04580
C309        C  0.97460485  0.71993778  0.58235981    -0.11570
C310        C  0.97829895  0.72412505  0.54667534     0.02080
C311        C  0.99109967  0.75474043  0.53371912    -0.10090
C312        C  0.99728111  0.78243783  0.55505841     0.04570
C313        C  0.99456714  0.77845415  0.59053452    -0.09520
H314        H  0.96325925  0.69671978  0.59270941     0.10170
H315        H  0.99317256  0.75822430  0.50617173     0.07700
H316        H  0.99977840  0.79994811  0.60711821     0.07540
C317        C  0.21453095  0.03979575  0.47135826     0.04580
C318        C  0.21342842  0.07600649  0.46861199    -0.11570
C319        C  0.23705344  0.09602076  0.48761126     0.02080
C320        C  0.26189773  0.07925530  0.50842388    -0.10090
C321        C  0.26242737  0.04328896  0.51085874     0.04570
C322        C  0.23848669  0.02428909  0.49293860    -0.09520
H323        H  0.19455152  0.08839412  0.45217577     0.10170
H324        H  0.28037719  0.09406721  0.52273799     0.07700
H325        H  0.23942108  0.99643692  0.49483207     0.07540
C326        C  0.20150694  0.69484088  0.48799561     0.04580
C327        C  0.22575711  0.71447581  0.50484139    -0.11570
C328        C  0.25320737  0.69956406  0.52228576     0.02080
C329        C  0.25558394  0.66360433  0.52514336    -0.10090
C330        C  0.23035442  0.64276886  0.50961996     0.04570
C331        C  0.20355402  0.65865861  0.49026990    -0.09520
H332        H  0.22443646  0.74229130  0.50257328     0.10170
H333        H  0.27692067  0.65194256  0.53895288     0.07700
H334        H  0.18502355  0.64312796  0.47683239     0.07540
C335        C  0.98731004  0.77351185  0.13962728     0.04580
C336        C  0.96618329  0.75017255  0.15804346    -0.11570
C337        C  0.96229881  0.75333182  0.19363319     0.02080
C338        C  0.97997000  0.77844144  0.21079850    -0.10090
C339        C  0.00213573  0.80075481  0.19407922     0.04570
C340        C  0.00579323  0.79884780  0.15804756    -0.09520
H341        H  0.95274476  0.72998353  0.14478957     0.10170
H342        H  0.97770955  0.77945892  0.23854502     0.07700
H343        H  0.02282204  0.81636997  0.14467184     0.07540
C344        C  0.13033221  0.99228391  0.71674222     0.04580
C345        C  0.15116718  0.02164898  0.72082303    -0.11570
C346        C  0.18754686  0.01811280  0.72262040     0.02080
C347        C  0.20204520  0.98534907  0.72039666    -0.10090
C348        C  0.18199757  0.95645820  0.71515046     0.04570
C349        C  0.14609304  0.95978987  0.71320177    -0.09520
H350        H  0.13908898  0.04664867  0.72354835     0.10170
H351        H  0.22976588  0.98199971  0.72272695     0.07700
H352        H  0.13048893  0.93725790  0.70899476     0.07540
C353        C  0.74951481  0.15040602  0.01452640     0.04580
C354        C  0.77505674  0.17179847  0.02922858    -0.11570
C355        C  0.77326052  0.20773027  0.02472918     0.02080
C356        C  0.74589758  0.22191954  0.00663138    -0.10090
C357        C  0.72248972  0.20176900  0.98948723     0.04570
C358        C  0.72333610  0.16582235  0.99402772    -0.09520
H359        H  0.79618521  0.16058522  0.04368579     0.10170
H360        H  0.74392426  0.24967317  0.00402988     0.07700
H361        H  0.70464161  0.15007833  0.98106443     0.07540
C362        C  0.50022872  0.74806681  0.78289568     0.04580
C363        C  0.52694599  0.73245617  0.76512775    -0.11570
C364        C  0.55343450  0.71500778  0.78152988     0.02080
C365        C  0.55243110  0.71136608  0.81737405    -0.10090
C366        C  0.52510672  0.72658237  0.83627313     0.04570
C367        C  0.49881591  0.74509098  0.81879699    -0.09520
H368        H  0.52643803  0.73301159  0.73731024     0.10170
H369        H  0.57260496  0.69700341  0.83039835     0.07700
H370        H  0.47811432  0.75745562  0.83293912     0.07540
C371        C  0.50934458  0.75628240  0.37181131     0.04580
C372        C  0.53165071  0.73032400  0.38407517    -0.11570
C373        C  0.53944027  0.72858967  0.41887550     0.02080
C374        C  0.52614521  0.75302080  0.44111277    -0.10090
C375        C  0.50023934  0.77554487  0.43069112     0.04570
C376        C  0.49223320  0.77817951  0.39546588    -0.09520
H377        H  0.54243254  0.71141292  0.36676455     0.10170
H378        H  0.53201425  0.75077503  0.46823650     0.07700
H379        H  0.47253915  0.79607309  0.38676020     0.07540
C380        C  0.73219410  0.84664669  0.48422966     0.04580
C381        C  0.71317998  0.82981549  0.51033064    -0.11570
C382        C  0.71025940  0.79391840  0.51012626     0.02080
C383        C  0.72409948  0.77546202  0.48297622    -0.10090
C384        C  0.74824102  0.79010297  0.46077175     0.04570
C385        C  0.75159457  0.82634204  0.46056176    -0.09520
H386        H  0.70189960  0.84438386  0.53113460     0.10170
H387        H  0.72060261  0.74781920  0.48279651     0.07700
H388        H  0.76967166  0.83848175  0.44314251     0.07540
C389        C  0.37103195  0.52303794  0.75589839     0.04580
C390        C  0.38775815  0.51151958  0.78605960    -0.11570
C391        C  0.42393698  0.50769884  0.78642219     0.02080
C392        C  0.44299781  0.51453457  0.75698241    -0.10090
C393        C  0.42741829  0.52569412  0.72706266     0.04570
C394        C  0.39124928  0.53038350  0.72636325    -0.09520
H395        H  0.37279011  0.50488651  0.80862119     0.10170
H396        H  0.47089447  0.51119945  0.75742703     0.07700
H397        H  0.37899229  0.53985205  0.70323397     0.07540
C398        C  0.78582230  0.45205377  0.77891569     0.04580
C399        C  0.76611594  0.47193817  0.75656775    -0.11570
C400        C  0.77926619  0.50183250  0.74215487     0.02080
C401        C  0.81497745  0.50764923  0.74378388    -0.10090
C402        C  0.83675859  0.48442309  0.76134075     0.04570
C403        C  0.82175264  0.45760704  0.78092826    -0.09520
H404        H  0.73880156  0.46643823  0.75413662     0.10170
H405        H  0.82593506  0.53036803  0.73202217     0.07700
H406        H  0.83742653  0.44242260  0.79834864     0.07540
C407        C  0.74418264  0.38397003  0.50043647     0.04580
C408        C  0.72467406  0.40521070  0.52271736    -0.11570
C409        C  0.72226026  0.44069094  0.51600521     0.02080
C410        C  0.73939309  0.45459761  0.48797397    -0.10090
C411        C  0.75935969  0.43450363  0.46622669     0.04570
C412        C  0.76191531  0.39898429  0.47232716    -0.09520
H413        H  0.71112178  0.39421525  0.54444662     0.10170
H414        H  0.73815310  0.48219605  0.48376960     0.07700
H415        H  0.77731081  0.38314696  0.45533033     0.07540
C416        C  0.68717776  0.47532671  0.20545065     0.04580
C417        C  0.70422099  0.50130422  0.22239091    -0.11570
C418        C  0.68643322  0.52591096  0.24113725     0.02080
C419        C  0.65007019  0.52583091  0.24172145    -0.10090
C420        C  0.63186451  0.50060898  0.22328363     0.04570
C421        C  0.65073887  0.47492187  0.20542935    -0.09520
H422        H  0.73230796  0.50137698  0.22239778     0.10170
H423        H  0.63611914  0.54487064  0.25651432     0.07700
H424        H  0.63727357  0.45475347  0.19219431     0.07540
O425        O  0.18319336  0.32885913  0.58579210    -0.79440
O426        O  0.08008872  0.43340642  0.66306584    -0.64130
O427        O  0.14160594  0.35989953  0.63699498    -1.10730
C428        C  0.05481788  0.34160807  0.55508426     1.07450
O429        O  0.03808394  0.39509259  0.66140164    -0.77340
O430        O  0.03454635  0.33398689  0.63529155    -0.64920
Ni431      Ni  0.18683635  0.36512678  0.62017879     1.34870
C432        C  0.05824127  0.32022870  0.65322533     0.86180
O433        O  0.14624609  0.41336011  0.68308875    -0.77880
O434        O  0.19532855  0.39841222  0.65464442    -0.88150
C435        C  0.04897063  0.42424530  0.66974787     0.85760
O436        O  0.17492569  0.40197112  0.58887570    -0.66350
O437        O  0.03597251  0.36432012  0.56941209    -0.85640
C438        C  0.15877949  0.42976105  0.59648134     0.86590
C439        C  0.17915060  0.41447670  0.67819262     1.08160
H440        H  0.09008626  0.39805368  0.59219918     0.39960
O441        O  0.08583396  0.38348522  0.61187401    -1.08300
O442        O  0.08926115  0.32079630  0.64375951    -0.64950
Ni443      Ni  0.11010887  0.34212358  0.60499863     1.26350
O444        O  0.13508296  0.43139093  0.61908736    -0.65180
O445        O  0.07817479  0.32508944  0.57151287    -0.77470
C446        C  0.16529092  0.30132374  0.58775350     0.85970
O447        O  0.13539043  0.30154554  0.60034250    -0.64650
Ni448      Ni  0.03727586  0.37951552  0.61586482     1.27450
Ni449      Ni  0.11365736  0.39853840  0.64914064     1.26060
H450        H  0.14342146  0.34504912  0.65685987     0.40510
O451        O  0.55426999  0.18504111  0.32385691    -0.79440
O452        O  0.63698389  0.08948268  0.42828119    -0.64130
O453        O  0.61224833  0.15264760  0.35494503    -1.10730
C454        C  0.54238411  0.06221353  0.32102242     1.07450
O455        O  0.64261419  0.05450897  0.38576178    -0.77340
O456        O  0.62396563  0.04864920  0.32250095    -0.64920
Ni457      Ni  0.58731180  0.19343983  0.36107673     1.34870
C458        C  0.64281836  0.07351653  0.31298612     0.86180
O459        O  0.65451436  0.15905028  0.41017455    -0.77880
O460        O  0.62084438  0.20495253  0.39481120    -0.88150
C461        C  0.64315683  0.05899420  0.41744927     0.85760
O462        O  0.55642654  0.17734979  0.39692778    -0.66350
O463        O  0.55458084  0.04292722  0.34475932    -0.85640
C464        C  0.56592232  0.16236029  0.42459722     0.86590
C465        C  0.64719598  0.19161312  0.40983681     1.08160
H466        H  0.56873051  0.09659023  0.38453009     0.39960
O467        O  0.59036501  0.09444898  0.37226612    -1.08300
O468        O  0.63128589  0.10392699  0.31434710    -0.64950
Ni469      Ni  0.58708979  0.11982820  0.33115599     1.26350
O470        O  0.59111017  0.14135389  0.42553511    -0.65180
O471        O  0.56052549  0.08597717  0.30756908    -0.77470
C472        C  0.56263543  0.17266300  0.29450670     0.85970
O473        O  0.58387958  0.14810462  0.29232495    -0.64650
Ni474      Ni  0.59941338  0.04742824  0.36549372     1.27450
Ni475      Ni  0.62408620  0.12395262  0.39294537     1.26060
H476        H  0.63312519  0.15842015  0.34257955     0.40510
C477        C  0.48502107  0.25713985  0.59164760     0.04580
C478        C  0.50476329  0.23084335  0.57549054    -0.11570
C479        C  0.50635196  0.22923251  0.53935890     0.02080
C480        C  0.48972406  0.25440997  0.52004722    -0.10090
C481        C  0.46738717  0.27832062  0.53477121     0.04570
C482        C  0.46553407  0.28033162  0.57085819    -0.09520
H483        H  0.51816713  0.21169420  0.59080496     0.10170
H484        H  0.49194601  0.25352375  0.49233065     0.07700
H485        H  0.44833002  0.29888095  0.58266140     0.07540
O486        O  0.40674900  0.32234154  0.31747108    -0.79440
O487        O  0.32351071  0.40849706  0.42768206    -0.64130
O488        O  0.34943565  0.35134436  0.35160874    -1.10730
C489        C  0.41648870  0.44700282  0.32210275     1.07450
O490        O  0.31557907  0.44771970  0.38753989    -0.77340
O491        O  0.33684561  0.45798300  0.32467587    -0.64920
Ni492      Ni  0.37489311  0.31043216  0.35488520     1.34870
C493        C  0.31790626  0.43409691  0.31373435     0.86180
O494        O  0.30901189  0.33947817  0.40826229    -0.77880
O495        O  0.34312207  0.29525222  0.38963309    -0.88150
C496        C  0.31306684  0.43858496  0.41846292     0.85760
O497        O  0.40646397  0.32550831  0.38945406    -0.66350
O498        O  0.40447933  0.46318226  0.34794289    -0.85640
C499        C  0.39852453  0.33876217  0.41821885     0.86590
C500        C  0.31718368  0.30721183  0.40633100     1.08160
H501        H  0.39168079  0.40663485  0.38329387     0.39960
O502        O  0.36977189  0.40897646  0.37172677    -1.08300
O503        O  0.32891498  0.40341833  0.31424762    -0.64950
Ni504      Ni  0.37348871  0.38686853  0.32934290     1.26350
O505        O  0.37294271  0.35910191  0.42194632    -0.65180
O506        O  0.39914270  0.42339848  0.30773515    -0.77470
C507        C  0.39817546  0.33691712  0.28913448     0.85970
O508        O  0.37706707  0.36174065  0.28867159    -0.64650
Ni509      Ni  0.35961168  0.45620093  0.36823210     1.27450
Ni510      Ni  0.33774718  0.37680743  0.39140319     1.26060
H511        H  0.32843873  0.34626793  0.33941477     0.40510
C512        C  0.53881752  0.48719954  0.25247026     0.04580
C513        C  0.57517440  0.48628232  0.25187742    -0.11570
C514        C  0.59332711  0.50060547  0.22368026     0.02080
C515        C  0.57443175  0.51531113  0.19610591    -0.10090
C516        C  0.53795195  0.51559762  0.19687939     0.04570
C517        C  0.52099507  0.50232312  0.22544451    -0.09520
H518        H  0.58915905  0.47438997  0.27285781     0.10170
H519        H  0.58796646  0.52642836  0.17442492     0.07700
H520        H  0.49296400  0.50344525  0.22664933     0.07540
C521        C  0.54529169  0.75433012  0.92605206     0.04580
C522        C  0.54309982  0.75384535  0.89037955    -0.11570
C523        C  0.52651597  0.72649431  0.87416655     0.02080
C524        C  0.50986929  0.70113281  0.89444720    -0.10090
C525        C  0.51321096  0.70156531  0.93053177     0.04570
C526        C  0.53357360  0.72656077  0.94532127    -0.09520
H527        H  0.55271345  0.77532872  0.87543846     0.10170
H528        H  0.49361605  0.68223731  0.88248158     0.07700
H529        H  0.53501390  0.72788409  0.97305202     0.07540
O530        O  0.32285245  0.57896628  0.16411130    -0.79440
O531        O  0.43150115  0.66201734  0.07378274    -0.64130
O532        O  0.35587148  0.63519123  0.13296154    -1.10730
C533        C  0.32813584  0.56910823  0.03861301     1.07450
O534        O  0.39118775  0.67052068  0.03554015    -0.77340
O535        O  0.32697076  0.65126847  0.02792774    -0.64920
Ni536      Ni  0.36255507  0.60834529  0.17259562     1.34870
C537        C  0.31585380  0.66845748  0.05323336     0.86180
O538        O  0.41229124  0.67588303  0.14304831    -0.77880
O539        O  0.39960329  0.63775129  0.18558475    -0.88150
C540        C  0.42274085  0.67066541  0.04322516     0.85760
O541        O  0.39528199  0.57646809  0.15239997    -0.66350
O542        O  0.35138901  0.58315792  0.02012024    -0.85640
C543        C  0.42373219  0.58554065  0.13845397     0.86590
C544        C  0.41381152  0.66523826  0.17447597     1.08160
H545        H  0.38779972  0.59517469  0.07537057     0.39960
O546        O  0.37534307  0.61672937  0.07402547    -1.08300
O547        O  0.31640736  0.65584849  0.08316283    -0.64950
Ni548      Ni  0.33329682  0.61133092  0.09777584     1.26350
O549        O  0.42648109  0.61323435  0.12146207    -0.65180
O550        O  0.31192946  0.58608784  0.06154660    -0.77470
C551        C  0.29381442  0.58803014  0.15097234     0.85970
O552        O  0.29265853  0.60619180  0.12404726    -0.64650
Ni553      Ni  0.37093670  0.62769928  0.02704743     1.27450
Ni554      Ni  0.39499688  0.64814439  0.10600888     1.26060
H555        H  0.34299021  0.65553564  0.13935042     0.40510
C556        C  0.23307095  0.60461683  0.51283885     0.04580
C557        C  0.25742972  0.58614917  0.49277855    -0.11570
C558        C  0.26150040  0.55041722  0.49749068     0.02080
C559        C  0.24147851  0.53361240  0.52163683    -0.10090
C560        C  0.21665473  0.55071524  0.54095531     0.04570
C561        C  0.21207443  0.58644916  0.53660117    -0.09520
H562        H  0.27261130  0.59934439  0.47347047     0.10170
H563        H  0.24388901  0.50587108  0.52404706     0.07700
H564        H  0.19291037  0.59997921  0.55174924     0.07540
O565        O  0.55924324  0.83784429  0.06022983    -0.79440
O566        O  0.64223376  0.91836328  0.17250015    -0.64130
O567        O  0.58719197  0.89430922  0.09450604    -1.10730
C568        C  0.68474396  0.82853547  0.07096898     1.07450
O569        O  0.67899151  0.92914707  0.13192651    -0.77340
O570        O  0.69370496  0.91037263  0.06907458    -0.64920
Ni571      Ni  0.54646543  0.86880314  0.09720615     1.34870
C572        C  0.66837532  0.92771630  0.05764547     0.86180
O573        O  0.57367621  0.93295816  0.15179737    -0.77880
O574        O  0.53029210  0.89955522  0.13163154    -0.88150
C575        C  0.67281611  0.92668025  0.16338000     0.85760
O576        O  0.56173889  0.83684938  0.13194754    -0.66350
O577        O  0.70277388  0.84297117  0.09395242    -0.85640
C578        C  0.57641747  0.84415623  0.16006466     0.86590
C579        C  0.54161297  0.92450736  0.14929225     1.08160
H580        H  0.64457859  0.85310768  0.12757573     0.39960
O581        O  0.64574036  0.87494498  0.11573898    -1.08300
O582        O  0.63841044  0.91531090  0.05783679    -0.64950
Ni583      Ni  0.62404739  0.87060970  0.07344175     1.26350
O584        O  0.59557681  0.86994131  0.16381873    -0.65180
O585        O  0.66230658  0.84559579  0.05375251    -0.77470
C586        C  0.57517969  0.84562436  0.03243772     0.85970
O587        O  0.59998954  0.86630133  0.03239763    -0.64650
Ni588      Ni  0.69262901  0.88724152  0.11276288     1.27450
Ni589      Ni  0.61196363  0.90581697  0.13481442     1.26060
H590        H  0.58170533  0.91522555  0.08212854     0.40510
C591        C  0.71161220  0.69985150  0.02061563     0.04580
C592        C  0.71569115  0.66389356  0.02127550    -0.11570
C593        C  0.73691955  0.64784271  0.99635428     0.02080
C594        C  0.75587926  0.66851241  0.97312748    -0.10090
C595        C  0.75085713  0.70421775  0.97266455     0.04570
C596        C  0.72714560  0.71897275  0.99474755    -0.09520
H597        H  0.70402222  0.64888331  0.04164864     0.10170
H598        H  0.77513828  0.65703431  0.95646572     0.07700
H599        H  0.72435369  0.74678170  0.99484146     0.07540
O600        O  0.82084017  0.08045831  0.54481009    -0.79440
O601        O  0.90268138  0.17660168  0.64712596    -0.64130
O602        O  0.87622352  0.10968858  0.58054772    -1.10730
C603        C  0.80876820  0.06742869  0.67159451     1.07450
O604        O  0.90869157  0.13301430  0.68277744    -0.77340
O605        O  0.88796134  0.06893026  0.68216403    -0.64920
Ni606      Ni  0.84983253  0.12152811  0.54197018     1.34870
C607        C  0.90672324  0.06124313  0.65660962     0.86180
O608        O  0.91840298  0.16488325  0.57698320    -0.77880
O609        O  0.87936765  0.16012680  0.53412351    -0.88150
C610        C  0.91119724  0.16470561  0.67659334     0.85760
O611        O  0.81729223  0.15074215  0.56635486    -0.66350
O612        O  0.82009171  0.09115940  0.69079139    -0.85640
C613        C  0.82673345  0.17727923  0.58283575     0.86590
C614        C  0.90828065  0.17041935  0.54591055     1.08160
H615        H  0.83408412  0.13460213  0.64004844     0.39960
O616        O  0.85574061  0.12213560  0.64075904    -1.08300
O617        O  0.89558329  0.06534217  0.62650647    -0.64950
Ni618      Ni  0.85153285  0.08340361  0.61268701     1.26350
O619        O  0.85490641  0.17810196  0.59907895    -0.65180
O620        O  0.82565055  0.05696779  0.64553534    -0.77470
C621        C  0.82975255  0.05058373  0.55601539     0.85970
O622        O  0.84821367  0.04691867  0.58229192    -0.64650
Ni623      Ni  0.86473753  0.11230244  0.68716440     1.27450
Ni624      Ni  0.88887736  0.14458480  0.61160186     1.26060
H625        H  0.89670999  0.09760271  0.57285368     0.40510
C626        C  0.68932527  0.99785017  0.71506135     0.04580
C627        C  0.70773885  0.97990862  0.73983985    -0.11570
C628        C  0.69157286  0.95923279  0.76393267     0.02080
C629        C  0.65544436  0.95560012  0.76310520    -0.10090
C630        C  0.63597802  0.97329904  0.73772889     0.04570
C631        C  0.65315549  0.99488762  0.71385438    -0.09520
H632        H  0.73563191  0.98280787  0.74096810     0.10170
H633        H  0.64260898  0.93978214  0.78212626     0.07700
H634        H  0.63858099  0.00917983  0.69481915     0.07540
O635        O  0.90756099  0.81988947  0.83152190    -0.79440
O636        O  0.83442990  0.91926123  0.93886430    -0.64130
O637        O  0.85625100  0.85600028  0.86690012    -1.10730
C638        C  0.91948359  0.94909058  0.82471123     1.07450
O639        O  0.82327736  0.95566901  0.89739153    -0.77340
O640        O  0.83787873  0.95925196  0.83188784    -0.64920
Ni641      Ni  0.88309217  0.81641156  0.87537649     1.34870
C642        C  0.82077318  0.93302472  0.82340772     0.86180
O643        O  0.81772966  0.85008321  0.92419685    -0.77880
O644        O  0.85795520  0.80817133  0.91712493    -0.88150
C645        C  0.82491267  0.94927362  0.92905438     0.85760
O646        O  0.91820273  0.83983125  0.90125963    -0.66350
O647        O  0.90777555  0.96847417  0.84835838    -0.85640
C648        C  0.91093385  0.85483041  0.92944578     0.86590
C649        C  0.82837015  0.81876356  0.92734865     1.08160
H650        H  0.89913328  0.91540952  0.89097138     0.39960
O651        O  0.87670554  0.91605269  0.88024492    -1.08300
O652        O  0.83378513  0.90333420  0.82604314    -0.64950
Ni653      Ni  0.87897072  0.88947360  0.84033601     1.26350
O654        O  0.88278858  0.87125669  0.93338220    -0.65180
O655        O  0.90235887  0.92372244  0.81372822    -0.77470
C656        C  0.89612094  0.83266000  0.80329337     0.85970
O657        O  0.88013023  0.86092230  0.80228729    -0.64650
Ni658      Ni  0.86493577  0.96269145  0.87288630     1.27450
Ni659      Ni  0.84589675  0.88551634  0.90392372     1.26060
H660        H  0.83502022  0.84895557  0.85618219     0.40510
O661        O  0.05520473  0.57956282  0.83605875    -0.79440
O662        O  0.16730780  0.66251940  0.91314551    -0.64130
O663        O  0.08889343  0.60635502  0.89329204    -1.10730
C664        C  0.05626416  0.70205726  0.82878601     1.07450
O665        O  0.12815963  0.70152212  0.92423508    -0.77340
O666        O  0.06244110  0.71196318  0.90949050    -0.64920
Ni667      Ni  0.09096109  0.56547729  0.86851579     1.34870
C668        C  0.05064535  0.68703971  0.92704694     0.86180
O669        O  0.14818552  0.59399581  0.92968520    -0.77880
O670        O  0.12432768  0.54925598  0.90077306    -0.88150
C671        C  0.15960780  0.69346673  0.92108927     0.85760
O672        O  0.12801778  0.57678671  0.83738443    -0.66350
O673        O  0.08137247  0.71959035  0.84023187    -0.85640
C674        C  0.15547552  0.59363209  0.84307698     0.86590
C675        C  0.14405623  0.56163843  0.92371743     1.08160
H676        H  0.11840061  0.66305833  0.85040860     0.39960
O677        O  0.10760755  0.66467003  0.87269642    -1.08300
O678        O  0.05035454  0.65694455  0.91513315    -0.64950
Ni679      Ni  0.06516146  0.64197611  0.87054649     1.26350
O680        O  0.15784717  0.61575968  0.86639072    -0.65180
O681        O  0.04201661  0.67893158  0.84713473    -0.77470
C682        C  0.02622826  0.59311558  0.84483485     0.85970
O683        O  0.02480412  0.61597638  0.86746913    -0.64650
Ni684      Ni  0.10458280  0.71164637  0.88315401     1.27450
Ni685      Ni  0.12925589  0.63177275  0.90285710     1.26060
H686        H  0.07751851  0.60106034  0.91475067     0.40510
C687        C  0.97793025  0.74408473  0.64161817     0.04580
C688        C  0.00247143  0.72753373  0.66296031    -0.11570
C689        C  0.99742940  0.72753963  0.69859712     0.02080
C690        C  0.96842793  0.74356650  0.71226687    -0.10090
C691        C  0.94416507  0.76006932  0.69173128     0.04570
C692        C  0.94900902  0.76082310  0.65620812    -0.09520
H693        H  0.02532435  0.71558456  0.65207025     0.10170
H694        H  0.96558310  0.74459277  0.73992931     0.07700
H695        H  0.93092827  0.77483577  0.64012901     0.07540
C696        C  0.93307317  0.47930669  0.74076423     0.04580
C697        C  0.89790331  0.47022042  0.74275097    -0.11570
C698        C  0.87443042  0.49116295  0.76144098     0.02080
C699        C  0.88649421  0.52123047  0.77718155    -0.10090
C700        C  0.92140500  0.53013738  0.77444996     0.04570
C701        C  0.94410275  0.50872012  0.75682461    -0.09520
H702        H  0.88885135  0.44765586  0.72962983     0.10170
H703        H  0.86876132  0.53767568  0.79114737     0.07700
H704        H  0.97139960  0.51487270  0.75574712     0.07540
C705        C  0.33257503  0.52596680  0.75464533     0.04580
C706        C  0.31403163  0.50582461  0.73113324    -0.11570
C707        C  0.27777230  0.50823641  0.72958532     0.02080
C708        C  0.26060379  0.53173172  0.75016376    -0.10090
C709        C  0.27763076  0.54961757  0.77547793     0.04570
C710        C  0.31391001  0.54697134  0.77797549    -0.09520
H711        H  0.32761549  0.48757822  0.71506438     0.10170
H712        H  0.23256519  0.53301655  0.74954823     0.07700
H713        H  0.32732078  0.56057571  0.79791513     0.07540
C714        C  0.70841282  0.94255339  0.47698670     0.04580
C715        C  0.70571985  0.90623070  0.47599732    -0.11570
C716        C  0.73465529  0.88497156  0.48450984     0.02080
C717        C  0.76515415  0.90058351  0.49624623    -0.10090
C718        C  0.76752910  0.93652728  0.49655091     0.04570
C719        C  0.74026222  0.95658553  0.48472875    -0.09520
H720        H  0.68149685  0.89457421  0.46899796     0.10170
H721        H  0.78629259  0.88498165  0.50595199     0.07700
H722        H  0.74337340  0.98425767  0.48408909     0.07540
C723        C  0.00220420  0.25315599  0.38117762     0.04580
C724        C  0.01991168  0.28112734  0.39569315    -0.11570
C725        C  0.02194112  0.28371149  0.43158762     0.02080
C726        C  0.00730099  0.25849020  0.45229889    -0.10090
C727        C  0.98872164  0.23176600  0.43860116     0.04570
C728        C  0.98594149  0.22898612  0.40289827    -0.09520
H729        H  0.03165620  0.30045575  0.37942785     0.10170
H730        H  0.00845265  0.26108553  0.47995021     0.07700
H731        H  0.97109461  0.20829605  0.39208573     0.07540
C732        C  0.95856095  0.23956427  0.79100252     0.04580
C733        C  0.96901122  0.23139034  0.82472889    -0.11570
C734        C  0.99877742  0.24691139  0.83854789     0.02080
C735        C  0.02064318  0.26587414  0.81622648    -0.10090
C736        C  0.01025772  0.27227551  0.78219061     0.04570
C737        C  0.97702737  0.26374356  0.77238935    -0.09520
H738        H  0.95447100  0.21299158  0.83977343     0.10170
H739        H  0.04561160  0.27449087  0.82491621     0.07700
H740        H  0.96910799  0.26965002  0.74631775     0.07540
C741        C  0.50483506  0.75952007  0.33433346     0.04580
C742        C  0.48139664  0.73829376  0.31673624    -0.11570
C743        C  0.48171277  0.73791539  0.28067525     0.02080
C744        C  0.50636935  0.75659949  0.26297643    -0.10090
C745        C  0.52831013  0.77878922  0.27962780     0.04570
C746        C  0.52776366  0.78051988  0.31545813    -0.09520
H747        H  0.46357965  0.72216030  0.33085719     0.10170
H748        H  0.50713218  0.75548242  0.23518189     0.07700
H749        H  0.54524510  0.79752966  0.32851196     0.07540
C750        C  0.77522054  0.03283609  0.26810836     0.04580
C751        C  0.75989581  0.00344836  0.25555979    -0.11570
C752        C  0.77907749  0.97631084  0.24249217     0.02080
C753        C  0.81501485  0.97974139  0.23934205    -0.10090
C754        C  0.83143142  0.01032316  0.24912060     0.04570
C755        C  0.81140182  0.03698109  0.26442753    -0.09520
H756        H  0.73191025  0.00183044  0.25629060     0.10170
H757        H  0.83015431  0.95913997  0.22815023     0.07700
H758        H  0.82370030  0.05998556  0.27356916     0.07540
C759        C  0.28235396  0.79643814  0.99458852     0.04580
C760        C  0.27476684  0.78169857  0.96321801    -0.11570
C761        C  0.25636204  0.80001133  0.93865465     0.02080
C762        C  0.25447954  0.83605030  0.94102502    -0.10090
C763        C  0.26837601  0.85296595  0.96967104     0.04570
C764        C  0.28047752  0.83265785  0.99771546    -0.09520
H765        H  0.27645287  0.75394171  0.96106280     0.10170
H766        H  0.24044654  0.85064000  0.92179693     0.07700
H767        H  0.28782532  0.84471873  0.02142821     0.07540
C768        C  0.74375532  0.34599722  0.50446024     0.04580
C769        C  0.75718968  0.32920216  0.53391255    -0.11570
C770        C  0.75557214  0.29305914  0.53672400     0.02080
C771        C  0.74094936  0.27445588  0.51029768    -0.10090
C772        C  0.72823717  0.29035105  0.48105494     0.04570
C773        C  0.72949526  0.32622938  0.47806047    -0.09520
H774        H  0.76918709  0.34393230  0.55394262     0.10170
H775        H  0.73967053  0.24670664  0.51239814     0.07700
H776        H  0.71887927  0.33878666  0.45554669     0.07540
C777        C  0.13017841  0.49789185  0.24372512     0.04580
C778        C  0.14602890  0.52200204  0.22141440    -0.11570
C779        C  0.18224215  0.52223085  0.21772002     0.02080
C780        C  0.20206389  0.49774306  0.23491871    -0.10090
C781        C  0.18766428  0.47558601  0.25891925     0.04570
C782        C  0.15140751  0.47523959  0.26333325    -0.09520
H783        H  0.13040529  0.54058264  0.20752845     0.10170
H784        H  0.22997557  0.49794721  0.23175049     0.07700
H785        H  0.13989922  0.45797722  0.28193186     0.07540
C786        C  0.27144812  0.44267429  0.01229766     0.04580
C787        C  0.24424415  0.46244019  0.99993611    -0.11570
C788        C  0.21860177  0.44840287  0.98001065     0.02080
C789        C  0.21720528  0.41258151  0.97603163    -0.10090
C790        C  0.24305713  0.39142292  0.99099978     0.04570
C791        C  0.27107307  0.40683390  0.00816113    -0.09520
H792        H  0.24481797  0.49012892  0.00319431     0.10170
H793        H  0.19707294  0.40141014  0.96063036     0.07700
H794        H  0.29235180  0.39126220  0.01759286     0.07540
C795        C  0.36814246  0.00576386  0.22923634     0.04580
C796        C  0.38242141  0.02749036  0.25447112    -0.11570
C797        C  0.41826513  0.02608353  0.26092257     0.02080
C798        C  0.43887701  0.00305030  0.24311528    -0.10090
C799        C  0.42568168  0.98187132  0.21823943     0.04570
C800        C  0.39019992  0.98331943  0.21084169    -0.09520
H801        H  0.36596880  0.04479801  0.26886722     0.10170
H802        H  0.46653002  0.00274942  0.24785473     0.07700
H803        H  0.37968466  0.96658286  0.19155776     0.07540
C804        C  0.47819445  0.24898649  0.12057113     0.04580
C805        C  0.46144234  0.27612664  0.13835767    -0.11570
C806        C  0.46289089  0.27748091  0.17432525     0.02080
C807        C  0.48010416  0.25162189  0.19216168    -0.10090
C808        C  0.49733772  0.22521498  0.17560966     0.04570
C809        C  0.49656466  0.22359077  0.13960286    -0.09520
H810        H  0.44740045  0.29586121  0.12438713     0.10170
H811        H  0.48057124  0.25227968  0.21996032     0.07700
H812        H  0.51033487  0.20317450  0.12657527     0.07540
C813        C  0.23468088  0.13422488  0.48803421     0.04580
C814        C  0.21706891  0.15033614  0.51543392    -0.11570
C815        C  0.21648227  0.18628302  0.51761695     0.02080
C816        C  0.23191140  0.20591293  0.49218392    -0.10090
C817        C  0.25121634  0.19103610  0.46627112     0.04570
C818        C  0.25267069  0.15485421  0.46372960    -0.09520
H819        H  0.20475066  0.13504185  0.53522252     0.10170
H820        H  0.23085943  0.23374669  0.49396033     0.07700
H821        H  0.26820340  0.14296137  0.44391254     0.07540
C822        C  0.98917648  0.77092600  0.10143964     0.04580
C823        C  0.97781209  0.79850036  0.08022026    -0.11570
C824        C  0.97533426  0.79406717  0.04443310     0.02080
C825        C  0.98217552  0.76182416  0.03081925    -0.10090
C826        C  0.99715519  0.73575347  0.05025597     0.04570
C827        C  0.00047196  0.73998516  0.08586307    -0.09520
H828        H  0.97053381  0.82282524  0.09149016     0.10170
H829        H  0.97912666  0.75789744  0.00350797     0.07700
H830        H  0.01203809  0.71970625  0.10121802     0.07540
C831        C  0.72651947  0.05635089  0.03380680     0.04580
C832        C  0.72248805  0.09204895  0.02798056    -0.11570
C833        C  0.75176764  0.11216425  0.01910881     0.02080
C834        C  0.78323381  0.09492914  0.01178230    -0.10090
C835        C  0.78633228  0.05919498  0.01687333     0.04570
C836        C  0.75952516  0.04185752  0.03293505    -0.09520
H837        H  0.69709141  0.10378002  0.02970219     0.10170
H838        H  0.80410821  0.10869328  0.99940129     0.07700
H839        H  0.76213956  0.01431356  0.03692591     0.07540
C840        C  0.03647075  0.00830180  0.69250158     0.04580
C841        C  0.07271540  0.01124505  0.69247326    -0.11570
C842        C  0.09212591  0.99423747  0.71824314     0.02080
C843        C  0.07469899  0.97782589  0.74564091    -0.10090
C844        C  0.03859581  0.97608524  0.74558697     0.04570
C845        C  0.02035764  0.98856049  0.71765046    -0.09520
H846        H  0.08552733  0.02642773  0.67292783     0.10170
H847        H  0.08908886  0.96706792  0.76695555     0.07700
H848        H  0.99231407  0.98714531  0.71806972     0.07540
C849        C  0.19668567  0.78093832  0.93864968     0.25050
C850        C  0.22904255  0.77952149  0.92248518    -0.23060
C851        C  0.23794747  0.74990507  0.90366870     0.19950
C852        C  0.21591347  0.72135832  0.90335090     0.24990
C853        C  0.18489100  0.72189013  0.92224416    -0.23000
C854        C  0.17547827  0.75235933  0.93933315     0.19890
F855        F  0.14647220  0.75411190  0.95874881    -0.12960
F856        F  0.18767253  0.80832133  0.95819237    -0.15330
F857        F  0.22519147  0.69319080  0.88515726    -0.15330
F858        F  0.26935962  0.74760448  0.88824956    -0.12960
C859        C  0.19767992  0.52854380  0.93115542     0.25050
C860        C  0.16387948  0.53535636  0.94208534    -0.23060
C861        C  0.14627818  0.51061090  0.96188009     0.19950
C862        C  0.16298053  0.48018627  0.97208056     0.24990
C863        C  0.19698674  0.47360435  0.96143759    -0.23000
C864        C  0.21385595  0.49769934  0.94015210     0.19890
F865        F  0.24687363  0.49194726  0.92957463    -0.12960
F866        F  0.21452582  0.55124009  0.91061305    -0.15330
F867        F  0.14651740  0.45781675  0.99325184    -0.15330
F868        F  0.11274452  0.51585766  0.97089991    -0.12960
C869        C  0.01022208  0.67684209  0.97743978     0.25050
C870        C  0.03920506  0.69311767  0.96290405    -0.23060
C871        C  0.05857786  0.71509758  0.98354799     0.19950
C872        C  0.04838256  0.72238105  0.01697785     0.24990
C873        C  0.01669332  0.71046645  0.02967210    -0.23000
C874        C  0.99853440  0.68614052  0.01033794     0.19890
F875        F  0.96758403  0.67445355  0.02172751    -0.12960
F876        F  0.99149318  0.65451135  0.95874034    -0.15330
F877        F  0.06624341  0.74626467  0.03464849    -0.15330
F878        F  0.08654440  0.73132319  0.97075770    -0.12960
C879        C  0.20108077  0.55065665  0.83161587     0.25050
C880        C  0.18803650  0.58390423  0.82585470    -0.23060
C881        C  0.20938025  0.60839221  0.80985522     0.19950
C882        C  0.24190723  0.59864630  0.79675433     0.24990
C883        C  0.25429135  0.56487440  0.80136071    -0.23000
C884        C  0.23420888  0.54160001  0.82054480     0.19890
F885        F  0.24513619  0.50861251  0.82482482    -0.12960
F886        F  0.18169762  0.52683125  0.84827239    -0.15330
F887        F  0.26017290  0.62132331  0.77748303    -0.15330
F888        F  0.19805001  0.64120409  0.80555880    -0.12960
C889        C  0.99214431  0.58850738  0.79156428     0.25050
C890        C  0.99441292  0.58431976  0.82709534    -0.23060
C891        C  0.96596676  0.57174413  0.84563616     0.19950
C892        C  0.93758610  0.55859179  0.82825034     0.24990
C893        C  0.93717262  0.55918009  0.79233344    -0.23000
C894        C  0.96263822  0.57796557  0.77450959     0.19890
F895        F  0.96176548  0.58044035  0.73980318    -0.12960
F896        F  0.01912899  0.60122059  0.77323725    -0.15330
F897        F  0.91306267  0.54125924  0.84614322    -0.15330
F898        F  0.96731555  0.56883404  0.88025607    -0.12960
C899        C  0.05969020  0.73068158  0.77023280     0.25050
C900        C  0.04411312  0.70687604  0.79285257    -0.23060
C901        C  0.01848195  0.68506887  0.77978738     0.19950
C902        C  0.00839971  0.68729907  0.74564412     0.24990
C903        C  0.02148670  0.71317548  0.72417519    -0.23000
C904        C  0.04804913  0.73411752  0.73636047     0.19890
F905        F  0.06020175  0.76018261  0.71654344    -0.12960
F906        F  0.08487095  0.75191337  0.78121434    -0.15330
F907        F  0.98194970  0.66746560  0.73482974    -0.15330
F908        F  0.00133372  0.66284452  0.80048614    -0.12960
C909        C  0.96954215  0.98774034  0.81038085     0.25050
C910        C  0.95415302  0.95520736  0.80958393    -0.23060
C911        C  0.97268443  0.92772023  0.79453801     0.19950
C912        C  0.00381959  0.93351264  0.77729565     0.24990
C913        C  0.01747062  0.96659086  0.77549629    -0.23000
C914        C  0.00101384  0.99331447  0.79354491     0.19890
F915        F  0.01343831  0.02576376  0.79137095    -0.12960
F916        F  0.95307341  0.01471286  0.82524001    -0.15330
F917        F  0.01894786  0.90752039  0.75960244    -0.15330
F918        F  0.96027391  0.89525256  0.79567739    -0.12960
C919        C  0.83254916  0.98046794  0.98525211     0.25050
C920        C  0.81767468  0.97824921  0.95254628    -0.23060
C921        C  0.79826218  0.00646034  0.94008285     0.19950
C922        C  0.79343195  0.03573881  0.95961613     0.24990
C923        C  0.80624264  0.03726839  0.99307594    -0.23000
C924        C  0.82647866  0.00962360  0.00555503     0.19890
F925        F  0.83825899  0.00997496  0.03821193    -0.12960
F926        F  0.85244401  0.95441789  0.99771326    -0.15330
F927        F  0.77211053  0.06083375  0.94738246    -0.15330
F928        F  0.78204007  0.00516939  0.90942744    -0.12960
C929        C  0.96646105  0.83700019  0.95859300     0.25050
C930        C  0.93236688  0.84931548  0.96066902    -0.23060
C931        C  0.91661844  0.85158871  0.99350228     0.19950
C932        C  0.93256494  0.83723449  0.02240226     0.24990
C933        C  0.96487360  0.82121849  0.01940741    -0.23000
C934        C  0.98288850  0.82392525  0.98786721     0.19890
F935        F  0.01514332  0.81027411  0.98459329    -0.12960
F936        F  0.98312028  0.83554481  0.92797282    -0.15330
F937        F  0.91459907  0.83544419  0.05228091    -0.15330
F938        F  0.88407967  0.86431597  0.99737442    -0.12960
C939        C  0.89267644  0.78069880  0.76712974     0.25050
C940        C  0.90192101  0.81516455  0.77064427    -0.23060
C941        C  0.91446599  0.83337753  0.74196682     0.19950
C942        C  0.92282454  0.81593344  0.71189995     0.24990
C943        C  0.91793949  0.78035660  0.71011874    -0.23000
C944        C  0.89959754  0.76364992  0.73656335     0.19890
F945        F  0.89362914  0.72940633  0.73480404    -0.12960
F946        F  0.87804135  0.76329594  0.79365344    -0.15330
F947        F  0.94000009  0.83276737  0.68653931    -0.15330
F948        F  0.92130442  0.86740825  0.74397297    -0.12960
C949        C  0.72927879  0.96751854  0.81317623     0.25050
C950        C  0.71509852  0.94438154  0.78978021    -0.23060
C951        C  0.73460396  0.91529096  0.78049606     0.19950
C952        C  0.76877685  0.91121477  0.79172550     0.24990
C953        C  0.78429995  0.93658454  0.81197495    -0.23000
C954        C  0.76371093  0.96417062  0.82345368     0.19890
F955        F  0.77722857  0.98881875  0.84354518    -0.12960
F956        F  0.71128328  0.99620376  0.82203415    -0.15330
F957        F  0.78741037  0.88378299  0.78057718    -0.15330
F958        F  0.72200582  0.89311787  0.75710619    -0.12960
C959        C  0.90351416  0.21377751  0.71734423     0.25050
C960        C  0.92312728  0.18583575  0.70532469    -0.23060
C961        C  0.95011553  0.17279331  0.72575279     0.19950
C962        C  0.95737644  0.18704703  0.75747618     0.24990
C963        C  0.93908595  0.21604115  0.76895532    -0.23000
C964        C  0.91168091  0.22902416  0.74876692     0.19890
F965        F  0.89458152  0.25795258  0.75842429    -0.12960
F966        F  0.87645776  0.22611382  0.69885512    -0.15330
F967        F  0.98518964  0.17505713  0.77513029    -0.15330
F968        F  0.97048022  0.14677437  0.71427661    -0.12960
C969        C  0.98485597  0.19436082  0.49062254     0.25050
C970        C  0.96831354  0.21133501  0.46313082    -0.23060
C971        C  0.93259508  0.21685403  0.46452545     0.19950
C972        C  0.91366389  0.20590739  0.49292026     0.24990
C973        C  0.92996565  0.18845954  0.52041372    -0.23000
C974        C  0.96580642  0.18284500  0.51899195     0.19890
F975        F  0.98220042  0.16535811  0.54443794    -0.12960
F976        F  0.01967201  0.18982916  0.49026670    -0.15330
F977        F  0.87913743  0.21250320  0.49351316    -0.15330
F978        F  0.91630608  0.23475539  0.43925505    -0.12960
C979        C  0.99474981  0.01809372  0.64527246     0.25050
C980        C  0.01263827  0.03107968  0.67354473    -0.23060
C981        C  0.99671626  0.05660931  0.69346722     0.19950
C982        C  0.96183170  0.06439826  0.68914759     0.24990
C983        C  0.94313246  0.05039080  0.66191067    -0.23000
C984        C  0.96052321  0.02855268  0.63882148     0.19890
F985        F  0.94354720  0.01504511  0.61182634    -0.12960
F986        F  0.00918533  0.99279623  0.62612528    -0.15330
F987        F  0.94597467  0.08415036  0.71300681    -0.15330
F988        F  0.01322334  0.06917522  0.72125447    -0.12960
C989        C  0.77205602  0.21293140  0.58504579     0.25050
C990        C  0.80778970  0.21026647  0.57993935    -0.23060
C991        C  0.82644478  0.23998667  0.57077717     0.19950
C992        C  0.80919282  0.27053348  0.56239261     0.24990
C993        C  0.77304332  0.27199254  0.56331220    -0.23000
C994        C  0.75489301  0.24399709  0.57781467     0.19890
F995        F  0.71987932  0.24518358  0.57994221    -0.12960
F996        F  0.75367508  0.18520890  0.59547484    -0.15330
F997        F  0.82746586  0.29685689  0.54853504    -0.15330
F998        F  0.86125462  0.23850413  0.56639088    -0.12960
C999        C  0.81746130  0.97565139  0.49651451     0.25050
C1000       C  0.79365541  0.95584884  0.51533112    -0.23060
C1001       C  0.78373865  0.96666000  0.54821291     0.19950
C1002       C  0.79440078  0.99835176  0.56039630     0.24990
C1003       C  0.81651642  0.01902516  0.54086003    -0.23000
C1004       C  0.82912237  0.00697638  0.50940447     0.19890
F1005       F  0.85182444  0.02596843  0.49083754    -0.12960
F1006       F  0.82666062  0.96621680  0.46435211    -0.15330
F1007       F  0.78102945  0.01018851  0.59017679    -0.15330
F1008       F  0.75954769  0.94893141  0.56623878    -0.12960
C1009       C  0.71645431  0.05380768  0.70269973     0.25050
C1010       C  0.71067421  0.01978816  0.69262959    -0.23060
C1011       C  0.73607758  0.00292203  0.67299772     0.19950
C1012       C  0.76825006  0.01792786  0.66749442     0.24990
C1013       C  0.77487831  0.05135522  0.67897332    -0.23000
C1014       C  0.74816198  0.06963911  0.69560896     0.19890
F1015       F  0.75315245  0.10229970  0.70625635    -0.12960
F1016       F  0.69287005  0.07029468  0.72261948    -0.15330
F1017       F  0.79395791  0.99842026  0.65380083    -0.15330
F1018       F  0.73165789  0.96963419  0.66403345    -0.12960
C1019       C  0.77710591  0.78189149  0.92312226     0.25050
C1020       C  0.80639907  0.79177114  0.94151206    -0.23060
C1021       C  0.82004410  0.76949383  0.96659344     0.19950
C1022       C  0.80401652  0.73829804  0.97391042     0.24990
C1023       C  0.77428369  0.72867131  0.95598064    -0.23000
C1024       C  0.76109997  0.75060768  0.93039143     0.19890
F1025       F  0.73176699  0.74227504  0.91358764    -0.12960
F1026       F  0.76492144  0.80187073  0.89714235    -0.15330
F1027       F  0.81610722  0.71849993  0.00009058    -0.15330
F1028       F  0.84910706  0.77801179  0.98382717    -0.12960
C1029       C  0.47697485  0.94313081  0.21751725     0.25050
C1030       C  0.45153901  0.96163818  0.19905478    -0.23060
C1031       C  0.45719629  0.96902152  0.16432383     0.19950
C1032       C  0.48822401  0.95920043  0.14868566     0.24990
C1033       C  0.51441043  0.94277876  0.16775206    -0.23000
C1034       C  0.50847242  0.93457234  0.20219736     0.19890
F1035       F  0.53270408  0.91717859  0.22062066    -0.12960
F1036       F  0.47188812  0.93508435  0.25106346    -0.15330
F1037       F  0.49269389  0.96529377  0.11468567    -0.15330
F1038       F  0.43347386  0.98721390  0.14603654    -0.12960
C1039       C  0.76404797  0.94256930  0.19181613     0.25050
C1040       C  0.75921703  0.94832302  0.22673887    -0.23060
C1041       C  0.72812512  0.93727576  0.24241109     0.19950
C1042       C  0.69969349  0.92856543  0.22227094     0.24990
C1043       C  0.70291497  0.92890665  0.18652375    -0.23000
C1044       C  0.73634214  0.93267290  0.17191927     0.19890
F1045       F  0.74209936  0.92964159  0.13773806    -0.12960
F1046       F  0.79394580  0.95139845  0.17583098    -0.15330
F1047       F  0.66876465  0.92241273  0.23753129    -0.15330
F1048       F  0.72384611  0.93986965  0.27682659    -0.12960
C1049       C  0.68139618  0.02336346  0.06559996     0.25050
C1050       C  0.69805544  0.03098942  0.03458370    -0.23060
C1051       C  0.69765506  0.00618507  0.00831250     0.19950
C1052       C  0.68639864  0.97268155  0.01504279     0.24990
C1053       C  0.67336243  0.96404661  0.04739627    -0.23000
C1054       C  0.66827736  0.99034974  0.07160431     0.19890
F1055       F  0.65273092  0.98357976  0.10204931    -0.12960
F1056       F  0.68114727  0.04657871  0.09131794    -0.15330
F1057       F  0.69034871  0.94820092  0.99078272    -0.15330
F1058       F  0.71293564  0.01307653  0.97769020    -0.12960
C1059       C  0.58905430  0.80604716  0.21076320     0.25050
C1060       C  0.56608905  0.82664311  0.19167641    -0.23060
C1061       C  0.53454273  0.83678976  0.20627613     0.19950
C1062       C  0.52560460  0.82617574  0.23912223     0.24990
C1063       C  0.54666334  0.80268357  0.25694665    -0.23000
C1064       C  0.57884359  0.79311508  0.24289937     0.19890
F1065       F  0.59900305  0.76945074  0.25911260    -0.12960
F1066       F  0.62039942  0.79726653  0.19764224    -0.15330
F1067       F  0.49405290  0.83507944  0.25178817    -0.15330
F1068       F  0.51197606  0.85674171  0.18838613    -0.12960
C1069       C  0.71750543  0.77230248  0.07707359     0.25050
C1070       C  0.68849317  0.79089974  0.06521484    -0.23060
C1071       C  0.66150680  0.77246076  0.04981743     0.19950
C1072       C  0.66584606  0.73784162  0.04148447     0.24990
C1073       C  0.69713950  0.72091300  0.04841263    -0.23000
C1074       C  0.72144658  0.73741279  0.06925116     0.19890
F1075       F  0.75184006  0.72144420  0.07675756    -0.12960
F1076       F  0.74325862  0.78824851  0.09405463    -0.15330
F1077       F  0.64165821  0.72236484  0.02200838    -0.15330
F1078       F  0.63117526  0.78807819  0.04177303    -0.12960
C1079       C  0.22643397  0.56748800  0.21791391     0.25050
C1080       C  0.20211589  0.54879156  0.19904243    -0.23060
C1081       C  0.20566741  0.54729635  0.16330411     0.19950
C1082       C  0.23465368  0.56180240  0.14713296     0.24990
C1083       C  0.26107834  0.57654018  0.16677951    -0.23000
C1084       C  0.25601509  0.58045976  0.20207368     0.19890
F1085       F  0.28027009  0.59601162  0.22142539    -0.12960
F1086       F  0.22345168  0.56957663  0.25249981    -0.15330
F1087       F  0.23808667  0.55914931  0.11267454    -0.15330
F1088       F  0.18288048  0.52910928  0.14454884    -0.12960
C1089       C  0.33035149  0.51407530  0.00463262     0.25050
C1090       C  0.32056049  0.53191625  0.03443071    -0.23060
C1091       C  0.30518688  0.51312388  0.06146944     0.19950
C1092       C  0.29533043  0.47899795  0.05690014     0.24990
C1093       C  0.30046248  0.46297104  0.02524266    -0.23000
C1094       C  0.32073728  0.47975865  0.00030948     0.19890
F1095       F  0.32618611  0.46480672  0.96945006    -0.12960
F1096       F  0.34691993  0.53040023  0.97856544    -0.15330
F1097       F  0.27605980  0.46334774  0.08151091    -0.15330
F1098       F  0.29850519  0.52803231  0.09206999    -0.12960
C1099       C  0.32092558  0.76405151  0.03495660     0.25050
C1100       C  0.28754865  0.77119277  0.02303701    -0.23060
C1101       C  0.26166256  0.74615071  0.02836683     0.19950
C1102       C  0.27033241  0.71291373  0.03973630     0.24990
C1103       C  0.30459356  0.70468759  0.04789412    -0.23000
C1104       C  0.32914440  0.73131476  0.04810745     0.19890
F1105       F  0.36168062  0.72527192  0.05936735    -0.12960
F1106       F  0.34635648  0.78747772  0.03061855    -0.15330
F1107       F  0.24577272  0.68825120  0.04054706    -0.15330
F1108       F  0.22881583  0.75250863  0.01782769    -0.12960
C1109       C  0.42593671  0.71975936  0.20521813     0.25050
C1110       C  0.43196556  0.68453283  0.20112803    -0.23060
C1111       C  0.45009662  0.66622513  0.22687999     0.19950
C1112       C  0.46298684  0.68306555  0.25548786     0.24990
C1113       C  0.45788513  0.71843252  0.25904486    -0.23000
C1114       C  0.43857182  0.73652185  0.23405091     0.19890
F1115       F  0.43394104  0.77100514  0.23663803    -0.12960
F1116       F  0.40727399  0.73777210  0.18173058    -0.15330
F1117       F  0.48249457  0.66529985  0.27848580    -0.15330
F1118       F  0.45589820  0.63192786  0.22398003    -0.12960
C1119       C  0.58605877  0.79665423  0.95016136     0.25050
C1120       C  0.55216923  0.78574355  0.94510614    -0.23060
C1121       C  0.52524226  0.79909584  0.96550655     0.19950
C1122       C  0.53264859  0.81957856  0.99342949     0.24990
C1123       C  0.56690436  0.82817895  0.00042617    -0.23000
C1124       C  0.59337329  0.81842940  0.97737784     0.19890
F1125       F  0.62667887  0.82749803  0.98280998    -0.12960
F1126       F  0.61228739  0.78382010  0.93080738    -0.15330
F1127       F  0.50652486  0.82988289  0.01438309    -0.15330
F1128       F  0.49209654  0.78919245  0.96043447    -0.12960
C1129       C  0.50049248  0.66595708  0.98288844     0.25050
C1130       C  0.48838801  0.68534467  0.95459666    -0.23060
C1131       C  0.45521795  0.69993222  0.95633487     0.19950
C1132       C  0.43517328  0.69659414  0.98592166     0.24990
C1133       C  0.44725929  0.67769716  0.01459363    -0.23000
C1134       C  0.47999324  0.66189815  0.01251829     0.19890
F1135       F  0.49208187  0.64250758  0.03895611    -0.12960
F1136       F  0.53298849  0.65260158  0.98243305    -0.15330
F1137       F  0.40404878  0.71297427  0.98679599    -0.15330
F1138       F  0.44349105  0.72044854  0.93052967    -0.12960
C1139       C  0.51573906  0.56720130  0.16573235     0.25050
C1140       C  0.51541590  0.53151003  0.17036045    -0.23060
C1141       C  0.48661358  0.51297206  0.15857613     0.19950
C1142       C  0.45695541  0.53016348  0.14677666     0.24990
C1143       C  0.45615787  0.56609237  0.14510878    -0.23000
C1144       C  0.48652893  0.58433248  0.15293945     0.19890
F1145       F  0.48681061  0.61918572  0.15165517    -0.12960
F1146       F  0.54262010  0.58588783  0.17741229    -0.15330
F1147       F  0.42859051  0.51182143  0.13846499    -0.15330
F1148       F  0.48589197  0.47827630  0.16210895    -0.12960
C1149       C  0.27212021  0.48635886  0.42879393     0.25050
C1150       C  0.29893568  0.46514837  0.44152207    -0.23060
C1151       C  0.31678999  0.47551425  0.47082927     0.19950
C1152       C  0.30739209  0.50618661  0.48734828     0.24990
C1153       C  0.28064955  0.52735454  0.47425959    -0.23000
C1154       C  0.26355677  0.51726163  0.44455919     0.19890
F1155       F  0.23641876  0.53600147  0.43247585    -0.12960
F1156       F  0.25391533  0.47691134  0.40083155    -0.15330
F1157       F  0.32318615  0.51453435  0.51705965    -0.15330
F1158       F  0.34366391  0.45647576  0.48295221    -0.12960
C1159       C  0.47099734  0.48301271  0.32028234     0.25050
C1160       C  0.45158874  0.45509032  0.30819170    -0.23060
C1161       C  0.46674620  0.43378324  0.28307129     0.19950
C1162       C  0.49909340  0.44128081  0.26910873     0.24990
C1163       C  0.51679645  0.47088612  0.27881776    -0.23000
C1164       C  0.50308816  0.49103800  0.30537077     0.19890
F1165       F  0.51923593  0.52032551  0.31456823    -0.12960
F1166       F  0.45817812  0.50381663  0.34506382    -0.15330
F1167       F  0.51121436  0.42196470  0.24278795    -0.15330
F1168       F  0.44957639  0.40653891  0.27037873    -0.12960
C1169       C  0.31138228  0.26397697  0.45248400     0.25050
C1170       C  0.29700097  0.28033670  0.42369317    -0.23060
C1171       C  0.27052374  0.26377296  0.40583143     0.19950
C1172       C  0.25776276  0.23204117  0.41740858     0.24990
C1173       C  0.27216509  0.21572021  0.44629567    -0.23000
C1174       C  0.29940064  0.23193728  0.46344767     0.19890
F1175       F  0.31268270  0.21771874  0.49245413    -0.12960
F1176       F  0.33729622  0.27907693  0.46994234    -0.15330
F1177       F  0.23036078  0.21792926  0.40137220    -0.15330
F1178       F  0.25749013  0.27810657  0.37680264    -0.12960
C1179       C  0.26356646  0.41962237  0.28082323     0.25050
C1180       C  0.28179255  0.44190390  0.30245848    -0.23060
C1181       C  0.26427293  0.47105092  0.31517990     0.19950
C1182       C  0.23031130  0.47856532  0.30529019     0.24990
C1183       C  0.21324894  0.45804745  0.28134148    -0.23000
C1184       C  0.22988910  0.42798266  0.26990298     0.19890
F1185       F  0.21468039  0.40833982  0.24582132    -0.12960
F1186       F  0.27908310  0.39090119  0.26841386    -0.15330
F1187       F  0.21541537  0.50830795  0.31602127    -0.15330
F1188       F  0.28031154  0.49311586  0.33647761    -0.12960
C1189       C  0.39410284  0.31635224  0.22896623     0.25050
C1190       C  0.41447912  0.32692186  0.25662338    -0.23060
C1191       C  0.45033036  0.32905499  0.25251798     0.19950
C1192       C  0.46581075  0.31891180  0.22185453     0.24990
C1193       C  0.44593857  0.30385425  0.19583724    -0.23000
C1194       C  0.40978796  0.30424675  0.19892040     0.19890
F1195       F  0.38999241  0.28959988  0.17455422    -0.12960
F1196       F  0.35919806  0.31508710  0.23218667    -0.15330
F1197       F  0.50080983  0.31949374  0.21923656    -0.15330
F1198       F  0.47046981  0.33984325  0.27861522    -0.12960
C1199       C  0.43047168  0.34672542  0.47451606     0.25050
C1200       C  0.41581989  0.32544712  0.44948512    -0.23060
C1201       C  0.41358417  0.29012237  0.45618483     0.19950
C1202       C  0.42603639  0.27613961  0.48665742     0.24990
C1203       C  0.44389362  0.29650145  0.51029530    -0.23000
C1204       C  0.44536969  0.33218059  0.50435751     0.19890
F1205       F  0.46259065  0.35253744  0.52640522    -0.12960
F1206       F  0.43180124  0.38116855  0.46931797    -0.15330
F1207       F  0.42284785  0.24180552  0.49205895    -0.15330
F1208       F  0.39876423  0.26889290  0.43319656    -0.12960
C1209       C  0.48187901  0.03854419  0.32801310     0.25050
C1210       C  0.50605248  0.05792268  0.30897775    -0.23060
C1211       C  0.49434867  0.07529551  0.27931470     0.19950
C1212       C  0.46039177  0.07151743  0.26787845     0.24990
C1213       C  0.43798275  0.04823184  0.28417202    -0.23000
C1214       C  0.44826182  0.03368047  0.31562710     0.19890
F1215       F  0.42733317  0.01094342  0.33190183    -0.12960
F1216       F  0.49111911  0.02284556  0.35777888    -0.15330
F1217       F  0.45154209  0.08539485  0.23709731    -0.15330
F1218       F  0.51647379  0.09374039  0.25952884    -0.12960
C1219       C  0.70012876  0.04429454  0.32274673     0.25050
C1220       C  0.67984173  0.06750875  0.30343130    -0.23060
C1221       C  0.69633683  0.08675214  0.27742447     0.19950
C1222       C  0.73110982  0.07990470  0.26855747     0.24990
C1223       C  0.75064989  0.05534365  0.28697794    -0.23000
C1224       C  0.73539553  0.04006217  0.31603691     0.19890
F1225       F  0.75320467  0.01581021  0.33407721    -0.12960
F1226       F  0.68575747  0.02407274  0.34720369    -0.15330
F1227       F  0.74455917  0.09451477  0.23985258    -0.15330
F1228       F  0.67804095  0.11003377  0.25870334    -0.12960
C1229       C  0.72510279  0.23707143  0.44591208     0.25050
C1230       C  0.71005663  0.26838284  0.45659216    -0.23060
C1231       C  0.67494144  0.27441383  0.45090690     0.19950
C1232       C  0.65469062  0.24906258  0.43659398     0.24990
C1233       C  0.66921162  0.21694255  0.42716319    -0.23000
C1234       C  0.70478367  0.21144433  0.43150878     0.19890
F1235       F  0.71990740  0.18149593  0.42176583    -0.12960
F1236       F  0.75929701  0.23083044  0.45086485    -0.15330
F1237       F  0.62035940  0.25577179  0.43325632    -0.15330
F1238       F  0.65952654  0.30386787  0.46172679    -0.12960
C1239       C  0.49832756  0.18255813  0.22267566     0.25050
C1240       C  0.51710320  0.20207988  0.19853141    -0.23060
C1241       C  0.55148125  0.21060810  0.20589075     0.19950
C1242       C  0.56612004  0.20133129  0.23742500     0.24990
C1243       C  0.54629548  0.18436101  0.26248577    -0.23000
C1244       C  0.51256874  0.17438828  0.25463669     0.19890
F1245       F  0.49315359  0.15745487  0.27823843    -0.12960
F1246       F  0.46482047  0.17469896  0.21658385    -0.15330
F1247       F  0.59911560  0.21052215  0.24427678    -0.15330
F1248       F  0.56963790  0.23089630  0.18398146    -0.12960
C1249       C  0.51608714  0.16833757  0.46644535     0.25050
C1250       C  0.55098871  0.17289864  0.45810491    -0.23060
C1251       C  0.57251794  0.18915308  0.48204696     0.19950
C1252       C  0.55873344  0.20389872  0.51183834     0.24990
C1253       C  0.52331682  0.20166159  0.51899157    -0.23000
C1254       C  0.50252145  0.18200676  0.49695055     0.19890
F1255       F  0.46814534  0.17922717  0.50329128    -0.12960
F1256       F  0.49496162  0.15167304  0.44463487    -0.15330
F1257       F  0.57928312  0.22347684  0.53171862    -0.15330
F1258       F  0.60663714  0.19318307  0.47529528    -0.12960
C1259       C  0.64729440  0.99486547  0.42310185     0.25050
C1260       C  0.65016934  0.02758781  0.43872470    -0.23060
C1261       C  0.66323876  0.02882106  0.47204097     0.19950
C1262       C  0.67732665  0.99897252  0.48722961     0.24990
C1263       C  0.68025115  0.96784203  0.46859294    -0.23000
C1264       C  0.66281171  0.96563072  0.43749370     0.19890
F1265       F  0.66388558  0.93621382  0.41912429    -0.12960
F1266       F  0.63151326  0.99134027  0.39236098    -0.15330
F1267       F  0.69134320  0.00131110  0.51892798    -0.15330
F1268       F  0.66488701  0.05912571  0.48880977    -0.12960
C1269       C  0.20321678  0.47459800  0.59531496     0.25050
C1270       C  0.17144590  0.46282333  0.58314453    -0.23060
C1271       C  0.15061236  0.48511744  0.56348789     0.19950
C1272       C  0.16327656  0.51732175  0.55302652     0.24990
C1273       C  0.19607339  0.52820303  0.56371873    -0.23000
C1274       C  0.21471262  0.50741034  0.58690294     0.19890
F1275       F  0.24647353  0.51715386  0.59761121    -0.12960
F1276       F  0.22353496  0.45401078  0.61507650    -0.15330
F1277       F  0.14501321  0.53645668  0.53012198    -0.15330
F1278       F  0.11901768  0.47491550  0.55287063    -0.12960
C1279       C  0.04338165  0.27154339  0.69247816     0.25050
C1280       C  0.05079436  0.30625052  0.68759004    -0.23060
C1281       C  0.05386093  0.32755340  0.71645383     0.19950
C1282       C  0.04432844  0.31567725  0.74908798     0.24990
C1283       C  0.03358085  0.28174801  0.75350646    -0.23000
C1284       C  0.03563904  0.25916839  0.72530823     0.19890
F1285       F  0.02648934  0.22576958  0.72909133    -0.12960
F1286       F  0.04257076  0.24994968  0.66540334    -0.15330
F1287       F  0.04322423  0.33784011  0.77570022    -0.15330
F1288       F  0.06549845  0.36008649  0.71300501    -0.12960
C1289       C  0.01309108  0.33414098  0.46742274     0.25050
C1290       C  0.03682178  0.31249293  0.45055225    -0.23060
C1291       C  0.06928291  0.30674913  0.46543781     0.19950
C1292       C  0.07569509  0.31749794  0.49890064     0.24990
C1293       C  0.04963487  0.33422639  0.51808908    -0.23000
C1294       C  0.01915118  0.34451221  0.50108703     0.19890
F1295       F  0.99387023  0.36212405  0.51777264    -0.12960
F1296       F  0.98149661  0.34015454  0.45352371    -0.15330
F1297       F  0.10691220  0.31009849  0.51292234    -0.15330
F1298       F  0.09283821  0.28630699  0.44950986    -0.12960
C1299       C  0.19899156  0.47316053  0.68726047     0.25050
C1300       C  0.20084617  0.43844075  0.69679476    -0.23060
C1301       C  0.23051922  0.42599964  0.71361415     0.19950
C1302       C  0.25737116  0.44824290  0.72191779     0.24990
C1303       C  0.25552597  0.48306839  0.71233079    -0.23000
C1304       C  0.22641017  0.49503051  0.69410429     0.19890
F1305       F  0.22412978  0.52840192  0.68394183    -0.12960
F1306       F  0.17157525  0.48536146  0.66916732    -0.15330
F1307       F  0.28446535  0.43605051  0.74045964    -0.15330
F1308       F  0.23367994  0.39207559  0.72134338    -0.12960
C1309       C  0.16642397  0.21476509  0.54441328     0.25050
C1310       C  0.20148753  0.20596487  0.54604537    -0.23060
C1311       C  0.22399891  0.22673821  0.56496951     0.19950
C1312       C  0.21245294  0.25798376  0.57838029     0.24990
C1313       C  0.17794645  0.26827448  0.57413736    -0.23000
C1314       C  0.15461349  0.24548317  0.55866759     0.19890
F1315       F  0.12071699  0.25397494  0.55520031    -0.12960
F1316       F  0.14444577  0.19561924  0.52563569    -0.15330
F1317       F  0.23510695  0.27844458  0.59482767    -0.15330
F1318       F  0.25814944  0.21866160  0.56671185    -0.12960
C1319       C  0.01983911  0.43944123  0.72368407     0.25050
C1320       C  0.02357555  0.44508883  0.68836468    -0.23060
C1321       C  0.99529674  0.45841035  0.66982961     0.19950
C1322       C  0.96408864  0.46645896  0.68639001     0.24990
C1323       C  0.96032020  0.46063545  0.72171227    -0.23000
C1324       C  0.98858102  0.44709957  0.74017683     0.19890
F1325       F  0.98615029  0.44253767  0.77459954    -0.12960
F1326       F  0.04599826  0.42493117  0.74192203    -0.15330
F1327       F  0.93792174  0.48099405  0.66817897    -0.15330
F1328       F  0.99751421  0.46211675  0.63529175    -0.12960
C1329       C  0.20091124  0.96318159  0.41792944     0.25050
C1330       C  0.17177521  0.94837749  0.43378508    -0.23060
C1331       C  0.15244567  0.96852258  0.45698529     0.19950
C1332       C  0.16368738  0.00145080  0.46610598     0.24990
C1333       C  0.19368999  0.01544050  0.45130536    -0.23000
C1334       C  0.21118825  0.99649209  0.42601694     0.19890
F1335       F  0.24074653  0.00889120  0.41191939    -0.12960
F1336       F  0.22016395  0.94518467  0.39505367    -0.15330
F1337       F  0.14708070  0.01841419  0.49164044    -0.15330
F1338       F  0.12389640  0.95554154  0.47251185    -0.12960
C1339       C  0.05353035  0.84152362  0.50866111     0.25050
C1340       C  0.03211014  0.84776983  0.48000314    -0.23060
C1341       C  0.99640100  0.84281495  0.48321904     0.19950
C1342       C  0.98318433  0.82714940  0.51261120     0.24990
C1343       C  0.00580994  0.81495166  0.53815376    -0.23000
C1344       C  0.04038141  0.82485671  0.53750878     0.19890
F1345       F  0.06238483  0.81398262  0.56238209    -0.12960
F1346       F  0.08788451  0.84822265  0.50761829    -0.15330
F1347       F  0.94918529  0.81885061  0.51373695    -0.15330
F1348       F  0.97466853  0.85096913  0.45715195    -0.12960
C1349       C  0.01082351  0.85125666  0.27253023     0.25050
C1350       C  0.04272702  0.83929856  0.28499172    -0.23060
C1351       C  0.06486035  0.82125499  0.26263100     0.19950
C1352       C  0.05376590  0.81255890  0.22955968     0.24990
C1353       C  0.02112642  0.82339374  0.21764531    -0.23000
C1354       C  0.00079421  0.84459978  0.23891248     0.19890
F1355       F  0.96893490  0.85501797  0.22848836    -0.12960
F1356       F  0.98941039  0.86997982  0.29286760    -0.15330
F1357       F  0.07348858  0.79102994  0.21036307    -0.15330
F1358       F  0.09653657  0.81072556  0.27340738    -0.12960
C1359       C  0.19073084  0.72251174  0.43217808     0.25050
C1360       C  0.17833503  0.71486649  0.46517238    -0.23060
C1361       C  0.15459090  0.73773883  0.48036241     0.19950
C1362       C  0.14655098  0.76933240  0.46466016     0.24990
C1363       C  0.16219261  0.77885787  0.43329093    -0.23000
C1364       C  0.18292899  0.75410424  0.41643919     0.19890
F1365       F  0.19726252  0.76096017  0.38537512    -0.12960
F1366       F  0.21416379  0.70127471  0.41710998    -0.15330
F1367       F  0.12537256  0.79143967  0.48152365    -0.15330
F1368       F  0.14266491  0.73136124  0.51251682    -0.12960
C1369       C  0.22707068  0.91360106  0.72956912     0.25050
C1370       C  0.20093193  0.92469949  0.70702143    -0.23060
C1371       C  0.20298542  0.91563377  0.67248882     0.19950
C1372       C  0.23327314  0.90101062  0.65956874     0.24990
C1373       C  0.26189666  0.89507094  0.68123521    -0.23000
C1374       C  0.25766424  0.89935339  0.71669250     0.19890
F1375       F  0.28374620  0.89169655  0.73865293    -0.12960
F1376       F  0.22497132  0.92131222  0.76335549    -0.15330
F1377       F  0.23551664  0.89588505  0.62528255    -0.15330
F1378       F  0.17789227  0.92575780  0.65031787    -0.12960
C1379       C  0.29171022  0.97373461  0.56846445     0.25050
C1380       C  0.31738874  0.95837975  0.54762935    -0.23060
C1381       C  0.33073272  0.97766613  0.51983836     0.19950
C1382       C  0.31628876  0.00958206  0.51112830     0.24990
C1383       C  0.28826600  0.02289424  0.52979888    -0.23000
C1384       C  0.27734245  0.00562322  0.55953549     0.19890
F1385       F  0.24985210  0.01775287  0.57761457    -0.12960
F1386       F  0.27899175  0.95725933  0.59651154    -0.15330
F1387       F  0.32676483  0.02550049  0.48185849    -0.15330
F1388       F  0.35635183  0.96493346  0.49963986    -0.12960
C1389       C  0.44783683  0.77361490  0.51154256     0.25050
C1390       C  0.45157437  0.80701308  0.52388369    -0.23060
C1391       C  0.46846509  0.83158715  0.50323474     0.19950
C1392       C  0.48237299  0.82243366  0.47119337     0.24990
C1393       C  0.47843423  0.78892987  0.45892129    -0.23000
C1394       C  0.46080357  0.76474071  0.47942911     0.19890
F1395       F  0.45725112  0.73190171  0.46867299    -0.12960
F1396       F  0.43014978  0.74989441  0.53014161    -0.15330
F1397       F  0.49998653  0.84600632  0.45241125    -0.15330
F1398       F  0.47012217  0.86473823  0.51348954    -0.12960
C1399       C  0.46991330  0.79592344  0.70634051     0.25050
C1400       C  0.43734949  0.78162714  0.70113856    -0.23060
C1401       C  0.42325929  0.75985290  0.72645081     0.19950
C1402       C  0.44226576  0.75130981  0.75580602     0.24990
C1403       C  0.47480807  0.76590878  0.76101106    -0.23000
C1404       C  0.48773972  0.78940892  0.73657434     0.19890
F1405       F  0.51921646  0.80388395  0.74092331    -0.12960
F1406       F  0.48352948  0.81798066  0.68290585    -0.15330
F1407       F  0.42959600  0.72787021  0.77838258    -0.15330
F1408       F  0.39073966  0.74762060  0.72298718    -0.12960
C1409       C  0.28712809  0.77042878  0.57515973     0.25050
C1410       C  0.30470448  0.78997096  0.54990856    -0.23060
C1411       C  0.31125775  0.77479147  0.51788446     0.19950
C1412       C  0.29864028  0.74211582  0.51063360     0.24990
C1413       C  0.27902724  0.72389120  0.53501127    -0.23000
C1414       C  0.27435471  0.73784190  0.56764686     0.19890
F1415       F  0.25469361  0.72119937  0.59127739    -0.12960
F1416       F  0.28090127  0.78327277  0.60682342    -0.15330
F1417       F  0.30263093  0.72954576  0.47852199    -0.15330
F1418       F  0.32914367  0.79177462  0.49312886    -0.12960
C1419       C  0.05085641  0.16877342  0.26710272     0.25050
C1420       C  0.04876750  0.20434406  0.27072927    -0.23060
C1421       C  0.06063939  0.22565851  0.24383018     0.19950
C1422       C  0.06888864  0.21173896  0.21191032     0.24990
C1423       C  0.06758093  0.17615848  0.20717751    -0.23000
C1424       C  0.06139409  0.15476991  0.23594920     0.19890
F1425       F  0.06390507  0.12018806  0.23364700    -0.12960
F1426       F  0.03913934  0.14771709  0.29239930    -0.15330
F1427       F  0.07769164  0.23300463  0.18564128    -0.15330
F1428       F  0.05947916  0.26032251  0.24717200    -0.12960
C1429       C  0.00538106  0.17438943  0.97775035     0.25050
C1430       C  0.02674972  0.17983005  0.94873523    -0.23060
C1431       C  0.06021396  0.16618001  0.94900967     0.19950
C1432       C  0.07396502  0.15254200  0.97929955     0.24990
C1433       C  0.05446817  0.15268622  0.01021102    -0.23000
C1434       C  0.01938791  0.16184645  0.00855049     0.19890
F1435       F  0.99928891  0.16088162  0.03709693    -0.12960
F1436       F  0.97243505  0.18665978  0.97780071    -0.15330
F1437       F  0.10779146  0.14299708  0.97897185    -0.15330
F1438       F  0.08132399  0.17080786  0.92152631    -0.12960
C1439       C  0.23806758  0.92331401  0.25161373     0.25050
C1440       C  0.25555983  0.95256698  0.26308272    -0.23060
C1441       C  0.24241102  0.97092184  0.29100676     0.19950
C1442       C  0.21185641  0.96076192  0.30675117     0.24990
C1443       C  0.19422504  0.93170310  0.29529167    -0.23000
C1444       C  0.20766547  0.91271325  0.26790049     0.19890
F1445       F  0.19191494  0.88357190  0.25762540    -0.12960
F1446       F  0.24964198  0.90616769  0.22364228    -0.15330
F1447       F  0.19931666  0.97928384  0.33343690    -0.15330
F1448       F  0.25772918  0.00034261  0.30119988    -0.12960
C1449       C  0.23429563  0.06171519  0.18734636     0.25050
C1450       C  0.25165409  0.03374672  0.17231486    -0.23060
C1451       C  0.23451938  0.01530653  0.14670969     0.19950
C1452       C  0.19953346  0.02152738  0.13974613     0.24990
C1453       C  0.18120122  0.04776671  0.15677298    -0.23000
C1454       C  0.19958395  0.06887405  0.17945800     0.19890
F1455       F  0.18334352  0.09506472  0.19587978    -0.12960
F1456       F  0.24962413  0.07941991  0.21284292    -0.15330
F1457       F  0.18348513  0.00098539  0.11705160    -0.15330
F1458       F  0.25038097  0.98785470  0.13205625    -0.12960
C1459       C  0.18461248  0.96888068  0.00044147     0.25050
C1460       C  0.22024984  0.97015001  0.00663646    -0.23060
C1461       C  0.23367271  0.99915562  0.02337672     0.19950
C1462       C  0.21218769  0.02655836  0.03280181     0.24990
C1463       C  0.17668876  0.02539741  0.02640969    -0.23000
C1464       C  0.16299796  0.99606725  0.01063041     0.19890
F1465       F  0.12835350  0.99334731  0.00619440    -0.12960
F1466       F  0.17088955  0.94186309  0.98368517    -0.15330
F1467       F  0.22574999  0.05340705  0.04996998    -0.15330
F1468       F  0.26804198  0.00123861  0.02979283    -0.12960
C1469       C  0.22207588  0.24732451  0.04579326     0.25050
C1470       C  0.20527718  0.27040433  0.02329045    -0.23060
C1471       C  0.17360955  0.26091542  0.00901108     0.19950
C1472       C  0.15909961  0.22912584  0.01683397     0.24990
C1473       C  0.17553309  0.20611842  0.03969953    -0.23000
C1474       C  0.20709532  0.21560868  0.05430260     0.19890
F1475       F  0.22268818  0.19482190  0.07772513    -0.12960
F1476       F  0.25363767  0.25506769  0.05843488    -0.15330
F1477       F  0.12826575  0.22099660  0.00265686    -0.15330
F1478       F  0.15787083  0.28162926  0.98556727    -0.12960
C1479       C  0.01154897  0.94439386  0.27181021     0.25050
C1480       C  0.01835102  0.95815348  0.30407434    -0.23060
C1481       C  0.99356974  0.97980171  0.31938963     0.19950
C1482       C  0.96222432  0.98698647  0.30306487     0.24990
C1483       C  0.95471085  0.97194998  0.27145146    -0.23000
C1484       C  0.97967319  0.95026792  0.25615216     0.19890
F1485       F  0.97329439  0.93527777  0.22557172    -0.12960
F1486       F  0.03469602  0.92276551  0.25686275    -0.15330
F1487       F  0.93954904  0.00921979  0.31780321    -0.15330
F1488       F  0.99893926  0.99214271  0.35130782    -0.12960
C1489       C  0.94546604  0.03601216  0.14749845     0.25050
C1490       C  0.93719793  0.04875422  0.18013988    -0.23060
C1491       C  0.96204002  0.06862775  0.19691081     0.19950
C1492       C  0.99619261  0.06914986  0.18514693     0.24990
C1493       C  0.00578656  0.05320608  0.15425650    -0.23000
C1494       C  0.97933677  0.03853523  0.13445685     0.19890
F1495       F  0.98646340  0.02504150  0.10327281    -0.12960
F1496       F  0.92189869  0.01730867  0.13026910    -0.15330
F1497       F  0.02036513  0.08240524  0.20594172    -0.15330
F1498       F  0.95524454  0.08056830  0.22885999    -0.12960
C1499       C  0.50143602  0.89827635  0.71915049     0.25050
C1500       C  0.52292823  0.91958475  0.69925643    -0.23060
C1501       C  0.51269370  0.92819853  0.66571853     0.19950
C1502       C  0.48060377  0.91739240  0.65321684     0.24990
C1503       C  0.45767099  0.89940870  0.67473576    -0.23000
C1504       C  0.46870849  0.88941119  0.70753436     0.19890
F1505       F  0.44776520  0.87073320  0.72838767    -0.12960
F1506       F  0.51042282  0.88992315  0.75176196    -0.15330
F1507       F  0.47111567  0.92607035  0.62085737    -0.15330
F1508       F  0.53229662  0.94967068  0.64635327    -0.12960
C1509       C  0.33379157  0.99088125  0.93732281     0.25050
C1510       C  0.31126455  0.96703869  0.92234470    -0.23060
C1511       C  0.29813123  0.97412643  0.88959060     0.19950
C1512       C  0.30491506  0.00562762  0.87350642     0.24990
C1513       C  0.32450407  0.03078998  0.89010729    -0.23000
C1514       C  0.34003347  0.02271552  0.92150055     0.19890
F1515       F  0.36025533  0.04598811  0.93729513    -0.12960
F1516       F  0.34637780  0.98484754  0.96920946    -0.15330
F1517       F  0.29019913  0.01260565  0.84270041    -0.15330
F1518       F  0.27536721  0.95234494  0.87505286    -0.12960
C1519       C  0.32340373  0.24982134  0.90952251     0.25050
C1520       C  0.30127506  0.22494069  0.89573256    -0.23060
C1521       C  0.26610844  0.23270727  0.89183453     0.19950
C1522       C  0.25274704  0.26350732  0.90444869     0.24990
C1523       C  0.27411739  0.28602630  0.92267963    -0.23000
C1524       C  0.30981049  0.28009577  0.92314720     0.19890
F1525       F  0.33084615  0.30139188  0.94061741    -0.12960
F1526       F  0.35786591  0.24367890  0.91225093    -0.15330
F1527       F  0.21807138  0.26906086  0.90343086    -0.15330
F1528       F  0.24456919  0.21010028  0.87674301    -0.12960
C1529       C  0.41239603  0.17830570  0.96269635     0.25050
C1530       C  0.43816123  0.16346069  0.94161930    -0.23060
C1531       C  0.47113839  0.15756396  0.95574091     0.19950
C1532       C  0.47915266  0.16996628  0.98843086     0.24990
C1533       C  0.45435519  0.18818492  0.00772559    -0.23000
C1534       C  0.42042442  0.19038309  0.99533996     0.19890
F1535       F  0.39612622  0.20845129  0.01296912    -0.12960
F1536       F  0.37958916  0.18264942  0.95119401    -0.15330
F1537       F  0.51232373  0.16805900  0.99945933    -0.15330
F1538       F  0.49648841  0.14240933  0.93693748    -0.12960
C1539       C  0.27285190  0.06116577  0.73610456     0.25050
C1540       C  0.26638055  0.07692990  0.76765340    -0.23060
C1541       C  0.23147783  0.08184551  0.77797245     0.19950
C1542       C  0.20458756  0.06610466  0.76064011     0.24990
C1543       C  0.21159163  0.04626195  0.73171823    -0.23000
C1544       C  0.24550157  0.04677392  0.71779691     0.19890
F1545       F  0.25271212  0.03018912  0.68812515    -0.12960
F1546       F  0.30563523  0.05748127  0.72413910    -0.15330
F1547       F  0.17240067  0.06724723  0.77455505    -0.15330
F1548       F  0.22319221  0.10015147  0.80634453    -0.12960
C1549       C  0.47996776  0.06497137  0.75884175     0.25050
C1550       C  0.45455095  0.05240001  0.78152798    -0.23060
C1551       C  0.46149915  0.02258811  0.80073554     0.19950
C1552       C  0.49289746  0.00502050  0.79634070     0.24990
C1553       C  0.51774402  0.01703239  0.77267594    -0.23000
C1554       C  0.51129829  0.04757682  0.75462053     0.19890
F1555       F  0.53412113  0.05890436  0.73064603    -0.12960
F1556       F  0.47408829  0.09398769  0.74019962    -0.15330
F1557       F  0.49821432  0.97490089  0.81333829    -0.15330
F1558       F  0.43829698  0.01092311  0.82416773    -0.12960
C1559       C  0.45962821  0.19235456  0.72191335     0.25050
C1560       C  0.43750859  0.21688767  0.70679020    -0.23060
C1561       C  0.40724299  0.22648981  0.72443191     0.19950
C1562       C  0.40054003  0.21368356  0.75750467     0.24990
C1563       C  0.42462769  0.19184729  0.77404552    -0.23000
C1564       C  0.45381240  0.18068110  0.75537903     0.19890
F1565       F  0.47750236  0.15919656  0.76977994    -0.12960
F1566       F  0.48948795  0.18321281  0.70587951    -0.15330
F1567       F  0.37153176  0.22438861  0.77407065    -0.15330
F1568       F  0.38591358  0.25083878  0.71092279    -0.12960
C1569       C  0.69844652  0.26982434  0.92656948     0.25050
C1570       C  0.66756971  0.28195639  0.94113610    -0.23060
C1571       C  0.65166933  0.26239125  0.96730328     0.19950
C1572       C  0.66736762  0.23250544  0.98008131     0.24990
C1573       C  0.69903474  0.22121129  0.96669533    -0.23000
C1574       C  0.71389525  0.23955393  0.93903883     0.19890
F1575       F  0.74504381  0.22963484  0.92619522    -0.12960
F1576       F  0.71341455  0.28701603  0.90009740    -0.15330
F1577       F  0.65317325  0.21623336  0.00753878    -0.15330
F1578       F  0.62124510  0.27286359  0.98130752    -0.12960
C1579       C  0.54527619  0.32412154  0.97130306     0.25050
C1580       C  0.52509707  0.32647413  0.94149139    -0.23060
C1581       C  0.48925171  0.32317389  0.94409365     0.19950
C1582       C  0.47436686  0.31307109  0.97527560     0.24990
C1583       C  0.49548621  0.30460232  0.00360040    -0.23000
C1584       C  0.53068234  0.31270345  0.00212514     0.19890
F1585       F  0.55163367  0.30556973  0.02908555    -0.12960
F1586       F  0.57953128  0.33102467  0.97011887    -0.15330
F1587       F  0.43993641  0.30675886  0.97653417    -0.15330
F1588       F  0.46905159  0.32749201  0.91605950    -0.12960
C1589       C  0.71400309  0.39849816  0.81168424     0.25050
C1590       C  0.69874974  0.42261034  0.83378206    -0.23060
C1591       C  0.71791302  0.45117617  0.84381471     0.19950
C1592       C  0.75109169  0.45654464  0.83079118     0.24990
C1593       C  0.76486554  0.43478933  0.80548137    -0.23000
C1594       C  0.74653219  0.40500501  0.79690856     0.19890
F1595       F  0.75860755  0.38417620  0.77179324    -0.12960
F1596       F  0.69647637  0.36994396  0.80272721    -0.15330
F1597       F  0.76761082  0.48601041  0.83885606    -0.15330
F1598       F  0.70390760  0.47469502  0.86537860    -0.12960
C1599       C  0.50252533  0.49428357  0.83715216     0.25050
C1600       C  0.50514941  0.45840342  0.83491502    -0.23060
C1601       C  0.47548303  0.43957611  0.82599835     0.19950
C1602       C  0.44514628  0.45644647  0.81619033     0.24990
C1603       C  0.44392713  0.49232557  0.81462351    -0.23000
C1604       C  0.47195014  0.51110146  0.82746625     0.19890
F1605       F  0.47123259  0.54594221  0.82619369    -0.12960
F1606       F  0.52981284  0.51313139  0.84757530    -0.15330
F1607       F  0.41871844  0.43778221  0.80349012    -0.15330
F1608       F  0.47649240  0.40477686  0.82412843    -0.12960
C1609       C  0.53411102  0.33939563  0.75460918     0.25050
C1610       C  0.55047453  0.31448855  0.77572883    -0.23060
C1611       C  0.55656544  0.28160773  0.76191853     0.19950
C1612       C  0.54484600  0.27336703  0.72913443     0.24990
C1613       C  0.52609936  0.29737507  0.70925208    -0.23000
C1614       C  0.52176776  0.33076384  0.72195508     0.19890
F1615       F  0.50306280  0.35423855  0.70388755    -0.12960
F1616       F  0.52896119  0.37191626  0.76586900    -0.15330
F1617       F  0.54801974  0.24038863  0.71843459    -0.15330
F1618       F  0.57188275  0.25644299  0.78088979    -0.12960
C1619       C  0.72417055  0.49594396  0.95479916     0.25050
C1620       C  0.70822853  0.52145267  0.97522767    -0.23060
C1621       C  0.67427601  0.51604286  0.98674249     0.19950
C1622       C  0.65637924  0.48640725  0.97702309     0.24990
C1623       C  0.67248769  0.46110969  0.95665542    -0.23000
C1624       C  0.70686999  0.46582976  0.94656179     0.19890
F1625       F  0.72272174  0.44254880  0.92596033    -0.12960
F1626       F  0.75654514  0.50056715  0.94206058    -0.15330
F1627       F  0.62257362  0.48326775  0.98577523    -0.15330
F1628       F  0.65843742  0.53939164  0.00722200    -0.12960
C1629       C  0.00918536  0.30835623  0.98491100     0.25050
C1630       C  0.99105850  0.29559404  0.95640821    -0.23060
C1631       C  0.95496085  0.29508715  0.95751712     0.19950
C1632       C  0.93733837  0.30588633  0.98654238     0.24990
C1633       C  0.95501166  0.31921822  0.01498086    -0.23000
C1634       C  0.99122335  0.32052687  0.01387632     0.19890
F1635       F  0.00903874  0.33392382  0.04036765    -0.12960
F1636       F  0.04424773  0.30767074  0.98510460    -0.15330
F1637       F  0.90244854  0.30305067  0.98687259    -0.15330
F1638       F  0.93665896  0.28115778  0.93155989    -0.12960
C1639       C  0.97270909  0.29974711  0.24826412     0.25050
C1640       C  0.95256571  0.27366290  0.26297850    -0.23060
C1641       C  0.92525744  0.25991139  0.24386260     0.19950
C1642       C  0.91784833  0.27267273  0.21092633     0.24990
C1643       C  0.93857614  0.29830518  0.19616460    -0.23000
C1644       C  0.96634889  0.31125239  0.21505110     0.19890
F1645       F  0.98639121  0.33655468  0.20168670    -0.12960
F1646       F  0.00042873  0.31219379  0.26521758    -0.15330
F1647       F  0.88968056  0.26114381  0.19410476    -0.15330
F1648       F  0.90657895  0.23343540  0.25677782    -0.12960
C1649       C  0.96185280  0.41752847  0.21168095     0.25050
C1650       C  0.94772986  0.43372016  0.18245450    -0.23060
C1651       C  0.96874566  0.45635952  0.16339094     0.19950
C1652       C  0.00175081  0.46496027  0.17512787     0.24990
C1653       C  0.01467765  0.45053489  0.20564429    -0.23000
C1654       C  0.99518399  0.42529758  0.22262039     0.19890
F1655       F  0.00679475  0.41141749  0.25246953    -0.12960
F1656       F  0.94313580  0.39479557  0.23045601    -0.15330
F1657       F  0.01949432  0.49023185  0.15882385    -0.15330
F1658       F  0.95652836  0.47197371  0.13464336    -0.12960
C1659       C  0.80383261  0.24005568  0.07082815     0.25050
C1660       C  0.79955997  0.23264777  0.03600635    -0.23060
C1661       C  0.81230833  0.25604885  0.01132677     0.19950
C1662       C  0.82566735  0.28758932  0.02107468     0.24990
C1663       C  0.82942753  0.29541986  0.05576858    -0.23000
C1664       C  0.81949597  0.27087484  0.08064092     0.19890
F1665       F  0.82369046  0.27741837  0.11443802    -0.12960
F1666       F  0.79105747  0.21853489  0.09518332    -0.15330
F1667       F  0.83516364  0.31044635  0.99644592    -0.15330
F1668       F  0.80906483  0.24939849  0.97740616    -0.12960
C1669       C  0.84851206  0.49733771  0.01585125     0.25050
C1670       C  0.84409341  0.48954288  0.05068992    -0.23060
C1671       C  0.83218788  0.51530226  0.07306715     0.19950
C1672       C  0.81955144  0.54627573  0.05989195     0.24990
C1673       C  0.81831866  0.55135388  0.02440888    -0.23000
C1674       C  0.83663428  0.52872948  0.00289703     0.19890
F1675       F  0.83673693  0.53401566  0.96849131    -0.12960
F1676       F  0.86234549  0.47386140  0.99412223    -0.15330
F1677       F  0.80280344  0.56833306  0.08112356    -0.15330
F1678       F  0.82918544  0.50915845  0.10721836    -0.12960
C1679       C  0.75894560  0.41193654  0.20632442     0.25050
C1680       C  0.77724529  0.42223286  0.17671838    -0.23060
C1681       C  0.76003772  0.44341649  0.15258512     0.19950
C1682       C  0.72692401  0.45655976  0.15948606     0.24990
C1683       C  0.71014000  0.44882661  0.19049641    -0.23000
C1684       C  0.72579620  0.42513034  0.21308334     0.19890
F1685       F  0.71070899  0.41809993  0.24377482    -0.12960
F1686       F  0.77400439  0.39114793  0.23010039    -0.15330
F1687       F  0.71279319  0.47991606  0.13756274    -0.15330
F1688       F  0.77568493  0.45257902  0.12274327    -0.12960
C1689       C  0.96520168  0.70292771  0.23090327     0.25050
C1690       C  0.94460048  0.72882567  0.21623275    -0.23060
C1691       C  0.91449078  0.73971346  0.23358355     0.19950
C1692       C  0.90545166  0.72514245  0.26531128     0.24990
C1693       C  0.92683571  0.70005478  0.28039969    -0.23000
C1694       C  0.95671299  0.68909153  0.26279659     0.19890
F1695       F  0.97752346  0.66436963  0.27650835    -0.12960
F1696       F  0.99530822  0.69326005  0.21563668    -0.15330
F1697       F  0.87540460  0.73468205  0.28071229    -0.15330
F1698       F  0.89502572  0.76583697  0.22058898    -0.12960
C1699       C  0.90750995  0.69412223  0.49073073     0.25050
C1700       C  0.92560216  0.67966325  0.46288466    -0.23060
C1701       C  0.96175553  0.67685905  0.46457140     0.19950
C1702       C  0.97929158  0.68844461  0.49363266     0.24990
C1703       C  0.96082436  0.70233945  0.52157064    -0.23000
C1704       C  0.92481303  0.70489402  0.51978260     0.19890
F1705       F  0.90653102  0.72048999  0.54512500    -0.12960
F1706       F  0.87280875  0.69870315  0.48951855    -0.15330
F1707       F  0.01434574  0.68731452  0.49411954    -0.15330
F1708       F  0.97994664  0.66248623  0.43850836    -0.12960
C1709       C  0.96086722  0.53819553  0.32418315     0.25050
C1710       C  0.94369792  0.56177852  0.30247111    -0.23060
C1711       C  0.96263079  0.57675092  0.27530453     0.19950
C1712       C  0.99683817  0.56670168  0.26867844     0.24990
C1713       C  0.01267782  0.54048573  0.28808196    -0.23000
C1714       C  0.99483632  0.52738969  0.31680147     0.19890
F1715       F  0.00886068  0.50114706  0.33528316    -0.12960
F1716       F  0.94395500  0.52357994  0.35103041    -0.15330
F1717       F  0.01296553  0.57928958  0.24034996    -0.15330
F1718       F  0.94771721  0.60032621  0.25415651    -0.12960
C1719       C  0.83002970  0.48846892  0.43169779     0.25050
C1720       C  0.81011121  0.51351288  0.41460718    -0.23060
C1721       C  0.77548919  0.50692263  0.40716062     0.19950
C1722       C  0.76026353  0.47657119  0.41864460     0.24990
C1723       C  0.77887894  0.45347879  0.43971448    -0.23000
C1724       C  0.81437618  0.45872773  0.44462000     0.19890
F1725       F  0.83280668  0.43726814  0.46527454    -0.12960
F1726       F  0.86388099  0.49420575  0.43833875    -0.15330
F1727       F  0.72595939  0.47197197  0.41339040    -0.15330
F1728       F  0.75589257  0.53078812  0.39057541    -0.12960
C1729       C  0.80046713  0.70890680  0.45059314     0.25050
C1730       C  0.80474291  0.70595153  0.41510951    -0.23060
C1731       C  0.79418317  0.73373889  0.39401268     0.19950
C1732       C  0.77720335  0.76269987  0.40834149     0.24990
C1733       C  0.77266387  0.76510295  0.44407605    -0.23000
C1734       C  0.78660256  0.73860446  0.46484180     0.19890
F1735       F  0.78507500  0.74064079  0.49950825    -0.12960
F1736       F  0.81011256  0.68287386  0.47190380    -0.15330
F1737       F  0.76415895  0.78750230  0.38739734    -0.15330
F1738       F  0.79882201  0.73212330  0.35961540    -0.12960
C1739       C  0.75824327  0.54498156  0.29932906     0.25050
C1740       C  0.77402872  0.57280000  0.28213871    -0.23060
C1741       C  0.75512880  0.58991305  0.25612357     0.19950
C1742       C  0.72287100  0.57762476  0.24576977     0.24990
C1743       C  0.70847456  0.54856469  0.26158808    -0.23000
C1744       C  0.72567536  0.53350869  0.28955788     0.19890
F1745       F  0.71282001  0.50473385  0.30460458    -0.12960
F1746       F  0.77506697  0.52726825  0.32430860    -0.15330
F1747       F  0.70722875  0.59204460  0.21807475    -0.15330
F1748       F  0.76845561  0.61748569  0.23937744    -0.12960
C1749       C  0.45774451  0.57160279  0.69606876     0.25050
C1750       C  0.45142555  0.53652524  0.69959215    -0.23060
C1751       C  0.47567918  0.51284182  0.68604413     0.19950
C1752       C  0.50592834  0.52425484  0.66955038     0.24990
C1753       C  0.51256711  0.55951342  0.66679978    -0.23000
C1754       C  0.48799525  0.58297811  0.68043335     0.19890
F1755       F  0.49376954  0.61734647  0.67977633    -0.12960
F1756       F  0.43607405  0.59492754  0.71067434    -0.15330
F1757       F  0.52852253  0.50098963  0.65638032    -0.15330
F1758       F  0.47083469  0.47862524  0.69052939    -0.12960
C1759       C  0.66731799  0.75736282  0.53954762     0.25050
C1760       C  0.69986523  0.77273608  0.53993184    -0.23060
C1761       C  0.72659236  0.75671737  0.55883179     0.19950
C1762       C  0.72249372  0.72336564  0.57203596     0.24990
C1763       C  0.69121337  0.70607649  0.56736749    -0.23000
C1764       C  0.66285597  0.72460550  0.55377997     0.19890
F1765       F  0.63098764  0.71043175  0.55311399    -0.12960
F1766       F  0.64094188  0.77237440  0.52202417    -0.15330
F1767       F  0.74993373  0.70705780  0.58656555    -0.15330
F1768       F  0.75823981  0.77140802  0.56009937    -0.12960
C1769       C  0.66295411  0.51335607  0.53406727     0.25050
C1770       C  0.68585688  0.53513860  0.55132425    -0.23060
C1771       C  0.71703842  0.52097725  0.56395155     0.19950
C1772       C  0.72587392  0.48675899  0.55784623     0.24990
C1773       C  0.70461364  0.46610840  0.53779837    -0.23000
C1774       C  0.67248206  0.47928181  0.52702854     0.19890
F1775       F  0.65200844  0.46024636  0.50656613    -0.12960
F1776       F  0.63229409  0.52551343  0.52211579    -0.15330
F1777       F  0.75750958  0.47504900  0.56761596    -0.15330
F1778       F  0.73992570  0.54047376  0.58115546    -0.12960
C1779       C  0.69422327  0.54401282  0.71959667     0.25050
C1780       C  0.70105148  0.55395753  0.68578246    -0.23060
C1781       C  0.73586078  0.55495074  0.67435596     0.19950
C1782       C  0.76203990  0.53998261  0.69356913     0.24990
C1783       C  0.75455247  0.52594349  0.72572169    -0.23000
C1784       C  0.72109055  0.53100272  0.73985103     0.19890
F1785       F  0.71397353  0.52144241  0.77263502    -0.12960
F1786       F  0.66161286  0.54527742  0.73246984    -0.15330
F1787       F  0.79389825  0.53673531  0.67922179    -0.15330
F1788       F  0.74472908  0.56895246  0.64365082    -0.12960
C1789       C  0.53978248  0.66202506  0.48410769     0.25050
C1790       C  0.57279502  0.66704175  0.49745264    -0.23060
C1791       C  0.59794887  0.68391244  0.47754508     0.19950
C1792       C  0.58855929  0.70021037  0.44701010     0.24990
C1793       C  0.55444116  0.69829243  0.43548793    -0.23000
C1794       C  0.53097003  0.67669252  0.45265413     0.19890
F1795       F  0.49791066  0.67424904  0.44150777    -0.12960
F1796       F  0.51587663  0.64382290  0.50198739    -0.15330
F1797       F  0.61144936  0.72113779  0.43092276    -0.15330
F1798       F  0.63090194  0.68668974  0.48880372    -0.12960
C1799       C  0.59316281  0.69976061  0.69773331     0.25050
C1800       C  0.58215163  0.66597601  0.69329816    -0.23060
C1801       C  0.57231428  0.64646598  0.72241393     0.19950
C1802       C  0.57014805  0.66136906  0.75459063     0.24990
C1803       C  0.57684512  0.69629281  0.75829740    -0.23000
C1804       C  0.59129609  0.71464305  0.73029926     0.19890
F1805       F  0.59838848  0.74853971  0.73350131    -0.12960
F1806       F  0.60479457  0.71846999  0.67064835    -0.15330
F1807       F  0.55627792  0.64303146  0.78091753    -0.15330
F1808       F  0.56245174  0.61324362  0.71936201    -0.12960
loop_ 
_geom_bond_atom_site_label_1 
_geom_bond_atom_site_label_2 
_geom_bond_distance 
_geom_bond_site_symmetry_2 
_ccdc_geom_bond_type 
O1           Ni7   1.885       .  S
O1           C22   1.256       .  A
O2          Ni25   1.853       .  S
O2           C11   1.256       .  A
O3           Ni7   1.872       .  S
O3          Ni25   1.856       .  S
O3          Ni19   1.937       .  S
O3           H26   0.966       .  S
C4           O21   1.299       .  A
C4           O13   1.280       .  A
C4         C1753   1.487       .  S
O5          Ni24   1.963       .  S
O5           C11   1.286       .  A
O6          Ni24   1.959       .  S
O6            C8   1.283       .  A
Ni7          O10   1.931       .  S
Ni7          O12   1.909       .  S
C8           O18   1.257       .  A
C8         C1800   1.474       .  S
O9          Ni25   1.925       .  S
O9           C15   1.278       .  A
O10          C15   1.280       .  A
C11        C1790   1.459       .  S
O12          C14   1.263       .  A
O13         Ni24   1.910       .  S
C14          O20   1.265       .  A
C14        C1770   1.490       .  S
C15        C1763   1.487       .  S
H16          O17   0.964       .  S
O17         Ni25   1.884       .  S
O17         Ni19   1.900       .  S
O17         Ni24   1.875       .  S
O18         Ni19   1.876       .  S
Ni19         O23   1.952       .  S
Ni19         O21   1.953       .  S
O20         Ni25   1.930       .  S
C22          O23   1.281       .  A
C22        C1780   1.477       .  S
O27         Ni33   1.888       .  S
O27          C48   1.256       .  A
O28         Ni51   1.879       .  S
O28          C37   1.261       .  A
O29         Ni33   1.882       .  S
O29         Ni51   1.876       .  S
O29         Ni45   1.921       .  S
O29          H52   0.966       .  S
C30          O47   1.291       .  A
C30          O39   1.282       .  A
C30        C1700   1.478       .  S
O31         Ni50   1.959       .  S
O31          C37   1.282       .  A
O32         Ni50   1.923       .  S
O32          C34   1.275       .  A
Ni33         O36   1.918       .  S
Ni33         O38   1.915       .  S
C34          O44   1.273       .  A
C34        C1730   1.490       .  S
O35         Ni51   1.934       .  S
O35          C41   1.282       .  A
O36          C41   1.279       .  A
C37        C1720   1.466       .  S
O38          C40   1.265       .  A
O39         Ni50   1.923       .  S
C40          O46   1.265       .  A
C40        C1710   1.495       .  S
C41        C1740   1.495       .  S
H42          O43   0.967       .  S
O43         Ni51   1.885       .  S
O43         Ni45   1.904       .  S
O43         Ni50   1.870       .  S
O44         Ni45   1.943       .  S
Ni45         O49   1.951       .  S
Ni45         O47   1.937       .  S
O46         Ni51   1.934       .  S
C48          O49   1.281       .  A
C48        C1693   1.465       .  S
O53         Ni59   1.886       .  S
O53          C74   1.258       .  A
O54         Ni77   1.861       .  S
O54          C63   1.258       .  A
O55         Ni59   1.878       .  S
O55         Ni77   1.868       .  S
O55         Ni71   1.930       .  S
O55          H78   0.966       .  S
C56          O73   1.294       .  A
C56          O65   1.276       .  A
C56        C1633   1.480       .  S
O57         Ni76   1.948       .  S
O57          C63   1.282       .  A
O58         Ni76   1.935       .  S
O58          C60   1.281       .  A
Ni59         O62   1.920       .  S
Ni59         O64   1.913       .  S
C60          O70   1.269       .  A
C60        C1663   1.477       .  S
O61         Ni77   1.940       .  S
O61          C67   1.282       .  A
O62          C67   1.278       .  A
C63        C1670   1.467       .  S
O64          C66   1.265       .  A
O65         Ni76   1.900       .  S
C66          O72   1.261       .  A
C66        C1650   1.488       .  S
C67        C1680   1.495       .  S
H68          O69   0.967       .  S
O69         Ni77   1.891       .  S
O69         Ni71   1.901       .  S
O69         Ni76   1.874       .  S
O70         Ni71   1.915       .  S
Ni71         O75   1.952       .  S
Ni71         O73   1.952       .  S
O72         Ni77   1.920       .  S
C74          O75   1.283       .  A
C74        C1643   1.464       .  S
C79         C593   1.483       .  S
C79          C80   1.407   1_556  A
C79          C84   1.423       .  A
C80          C81   1.394       .  A
C80          H85   1.084       .  S
C81        C1673   1.463       .  S
C81          C82   1.390       .  A
C82          C83   1.388   1_554  A
C82          H86   1.086       .  S
C83        C1620   1.493       .  S
C83          C84   1.418       .  A
C84          H87   1.083       .  S
C88        C1713   1.481       .  S
C88          C89   1.385       .  A
C88          C93   1.414       .  A
C89          C90   1.386       .  A
C89          H94   1.088   1_455  S
C90        C1653   1.475       .  S
C90          C91   1.408       .  A
C91          C92   1.419       .  A
C91          H95   1.083       .  S
C92         C777   1.496       .  S
C92          C93   1.423       .  A
C93          H96   1.083       .  S
O97        Ni103   1.897       .  S
O97         C118   1.262       .  A
O98        Ni121   1.861       .  S
O98         C107   1.256       .  A
O99        Ni103   1.896       .  S
O99        Ni121   1.881       .  S
O99        Ni115   1.926       .  S
O99         H122   0.966       .  S
C100        O117   1.291       .  A
C100        O109   1.275       .  A
C100       C1623   1.470       .  S
O101       Ni120   1.957       .  S
O101        C107   1.282       .  A
O102       Ni120   1.933       .  S
O102        C104   1.281       .  A
Ni103       O106   1.921       .  S
Ni103       O108   1.921       .  S
C104        O114   1.271       .  A
C104       C1590   1.474       .  S
O105       Ni121   1.943       .  S
O105        C111   1.281       .  A
O106        C111   1.277       .  A
C107       C1600   1.480       .  S
O108        C110   1.267       .  A
O109       Ni120   1.907       .  S
C110        O116   1.256       .  A
C110       C1580   1.470       .  S
C111       C1610   1.503       .  S
H112        O113   0.967       .  S
O113       Ni121   1.898       .  S
O113       Ni115   1.906       .  S
O113       Ni120   1.885       .  S
O114       Ni115   1.921       .  S
Ni115       O119   1.952       .  S
Ni115       O117   1.947       .  S
O116       Ni121   1.907       .  S
C118        O119   1.284       .  A
C118       C1570   1.476       .  S
O123       Ni129   1.893       .  S
O123        C144   1.258       .  A
O124       Ni147   1.857       .  S
O124        C133   1.258       .  A
O125       Ni129   1.890       .  S
O125       Ni147   1.875       .  S
O125       Ni141   1.933       .  S
O125        H148   0.965       .  S
C126        O143   1.293       .  A
C126        O135   1.278       .  A
C126       C1540   1.491       .  S
O127       Ni146   1.961       .  S
O127        C133   1.286       .  A
O128       Ni146   1.940       .  S
O128        C130   1.280       .  A
Ni129       O132   1.931       .  S
Ni129       O134   1.915       .  S
C130        O140   1.269       .  A
C130       C1513   1.476       .  S
O131       Ni147   1.932       .  S
O131        C137   1.279       .  A
O132        C137   1.279       .  A
C133       C1520   1.469       .  S
O134        C136   1.266       .  A
O135       Ni146   1.921       .  S
C136        O142   1.261       .  A
C136       C1563   1.491       .  S
C137       C1530   1.496       .  S
H138        O139   0.967       .  S
O139       Ni147   1.886       .  S
O139       Ni141   1.895       .  S
O139       Ni146   1.873       .  S
O140       Ni141   1.923       .  S
Ni141       O145   1.946       .  S
Ni141       O143   1.945       .  S
O142       Ni147   1.919       .  S
C144        O145   1.280       .  A
C144       C1550   1.468       .  S
C149       C1533   1.480       .  S
C149        C150   1.410       .  A
C149        C154   1.386       .  A
C150        C151   1.422       .  A
C150        H155   1.083       .  S
C151        C804   1.497       .  S
C151        C152   1.419       .  A
C152        C153   1.408       .  A
C152        H156   1.083       .  S
C153       C1583   1.480       .  S
C153        C154   1.389       .  A
C154        H157   1.087   1_554  S
C158       C1613   1.488       .  S
C158        C159   1.417       .  A
C158        C163   1.387       .  A
C159        C160   1.425       .  A
C159        H164   1.083       .  S
C160        C477   1.503       .  S
C160        C161   1.419       .  A
C161        C162   1.411       .  A
C161        H165   1.083       .  S
C162       C1560   1.478       .  S
C162        C163   1.388       .  A
C163        H166   1.088       .  S
C167        C630   1.486       .  S
C167        C168   1.420       .  A
C167        C172   1.415       .  A
C168        C169   1.410       .  A
C168        H173   1.083       .  S
C169       C1500   1.476       .  S
C169        C170   1.386       .  A
C170        C171   1.382       .  A
C170        H174   1.088       .  S
C171       C1553   1.469   1_565  S
C171        C172   1.405       .  A
C172        H175   1.083   1_565  S
C176       C1490   1.479       .  S
C176        C177   1.387       .  A
C176        C181   1.413       .  A
C177        C178   1.383   1_545  A
C177        H182   1.087   1_545  S
C178       C1483   1.480       .  S
C178        C179   1.408       .  A
C179        C180   1.417   1_565  A
C179        H183   1.083       .  S
C180        C754   1.492       .  S
C180        C181   1.422       .  A
C181        H184   1.083       .  S
C185        C790   1.485       .  S
C185        C186   1.413       .  A
C185        C190   1.420   1_556  A
C186        C187   1.403       .  A
C186        H191   1.083       .  S
C187       C1523   1.468       .  S
C187        C188   1.387       .  A
C188        C189   1.382   1_556  A
C188        H192   1.087       .  S
C189       C1470   1.474       .  S
C189        C190   1.411       .  A
C190        H193   1.083       .  S
C194        C763   1.499       .  S
C194        C195   1.420       .  A
C194        C199   1.422       .  A
C195        C196   1.408       .  A
C195        H200   1.083       .  S
C196       C1510   1.478       .  S
C196        C197   1.385       .  A
C197        C198   1.387       .  A
C197        H201   1.087       .  S
C198       C1460   1.486   1_556  S
C198        C199   1.417       .  A
C199        H202   1.083   1_556  S
C203       C1450   1.481       .  S
C203        C204   1.387   1_545  A
C203        C208   1.417       .  A
C204        C205   1.381       .  A
C204        H209   1.088       .  S
C205       C1440   1.461       .  S
C205        C206   1.400       .  A
C206        C207   1.410   1_565  A
C206        H210   1.084       .  S
C207        C795   1.488       .  S
C207        C208   1.423       .  A
C208        H211   1.083       .  S
C212        C734   1.495   1_455  S
C212        C213   1.414       .  A
C212        C217   1.421       .  A
C213        C214   1.409       .  A
C213        H218   1.084   1_455  S
C214       C1630   1.477   1_455  S
C214        C215   1.383       .  A
C215        C216   1.392       .  A
C215        H219   1.086       .  S
C216       C1430   1.483       .  S
C216        C217   1.415       .  A
C217        H220   1.083       .  S
C221        C723   1.483       .  S
C221        C222   1.416   1_455  A
C221        C226   1.413       .  A
C222        C223   1.411       .  A
C222        H227   1.083       .  S
C223       C1640   1.471       .  S
C223        C224   1.384       .  A
C224        C225   1.386   1_655  A
C224        H228   1.088       .  S
C225       C1420   1.468       .  S
C225        C226   1.403       .  A
C226        H229   1.083       .  S
O230       Ni236   1.890       .  S
O230        C251   1.267       .  A
O231       Ni254   1.857       .  S
O231        C240   1.258       .  A
O232       Ni236   1.888       .  S
O232       Ni254   1.891       .  S
O232       Ni248   1.930       .  S
O232        H255   0.965       .  S
C233        O250   1.297       .  A
C233        O242   1.279       .  A
C233       C1473   1.474       .  S
O234       Ni253   1.970       .  S
O234        C240   1.290       .  A
O235       Ni253   1.954       .  S
O235        C237   1.286       .  A
Ni236       O239   1.934       .  S
Ni236       O241   1.939       .  S
C237        O247   1.269       .  A
C237       C1433   1.493       .  S
O238       Ni254   1.915       .  S
O238        C244   1.267       .  A
O239        C244   1.270       .  A
C240       C1423   1.479       .  S
O241        C243   1.278       .  A
O242       Ni253   1.913       .  S
C243        O249   1.265       .  A
C243       C1453   1.494       .  S
C244       C1493   1.500       .  S
H245        O246   0.967       .  S
O246       Ni254   1.872       .  S
O246       Ni248   1.884       .  S
O246       Ni253   1.871       .  S
O247       Ni248   1.909       .  S
Ni248       O252   1.947       .  S
Ni248       O250   1.949       .  S
O249       Ni254   1.905       .  S
C251        O252   1.287       .  A
C251       C1463   1.468       .  S
O256       Ni262   1.891       .  S
O256        C277   1.260       .  A
O257       Ni280   1.871       .  S
O257        C266   1.259       .  A
O258       Ni262   1.894       .  S
O258       Ni280   1.879       .  S
O258       Ni274   1.920       .  S
O258        H281   0.966       .  S
C259        O276   1.290       .  A
C259        O268   1.274       .  A
C259       C1400   1.456       .  S
O260       Ni279   1.946       .  S
O260        C266   1.280       .  A
O261       Ni279   1.929       .  S
O261        C263   1.280       .  A
Ni262       O265   1.915       .  S
Ni262       O267   1.920       .  S
C263        O273   1.269       .  A
C263       C1503   1.474       .  S
O264       Ni280   1.930       .  S
O264        C270   1.278       .  A
O265        C270   1.276       .  A
C266       C1373   1.479       .  S
O267        C269   1.267       .  A
O268       Ni279   1.896       .  S
C269        O275   1.259       .  A
C269       C1410   1.491       .  S
C270       C1380   1.493       .  S
H271        O272   0.967       .  S
O272       Ni280   1.889       .  S
O272       Ni274   1.904       .  S
O272       Ni279   1.881       .  S
O273       Ni274   1.914       .  S
Ni274       O278   1.949       .  S
Ni274       O276   1.936       .  S
O275       Ni280   1.904       .  S
C277        O278   1.281       .  A
C277       C1390   1.467       .  S
O282       Ni288   1.894       .  S
O282        C303   1.262       .  A
O283       Ni306   1.862       .  S
O283        C292   1.258       .  A
O284       Ni288   1.886       .  S
O284       Ni306   1.878       .  S
O284       Ni300   1.921       .  S
O284        H307   0.966       .  S
C285        O302   1.291       .  A
C285        O294   1.275       .  A
C285       C1480   1.457       .  S
O286       Ni305   1.949       .  S
O286        C292   1.283       .  A
O287       Ni305   1.937       .  S
O287        C289   1.281       .  A
Ni288       O291   1.920       .  S
Ni288       O293   1.921       .  S
C289        O299   1.267       .  A
C289       C1350   1.480       .  S
O290       Ni306   1.940       .  S
O290        C296   1.280       .  A
O291        C296   1.276       .  A
C292       C1340   1.472       .  S
O293        C295   1.268       .  A
O294       Ni305   1.897       .  S
C295        O301   1.264       .  A
C295       C1330   1.493       .  S
C296       C1363   1.501       .  S
H297        O298   0.967       .  S
O298       Ni306   1.884       .  S
O298       Ni300   1.892       .  S
O298       Ni305   1.877       .  S
O299       Ni300   1.911       .  S
Ni300       O304   1.931       .  S
Ni300       O302   1.938       .  S
O301       Ni306   1.922       .  S
C303        O304   1.277       .  A
C303       C1443   1.456       .  S
C308        C687   1.473       .  S
C308        C309   1.412       .  A
C308        C313   1.406       .  A
C309        C310   1.409       .  A
C309        H314   1.083       .  S
C310       C1703   1.473       .  S
C310        C311   1.386       .  A
C311        C312   1.392       .  A
C311        H315   1.086       .  S
C312       C1343   1.463   1_655  S
C312        C313   1.397       .  A
C313        H316   1.084       .  S
C317       C1333   1.482       .  S
C317        C318   1.414       .  A
C317        C322   1.388       .  A
C318        C319   1.423       .  A
C318        H323   1.083       .  S
C319        C813   1.491       .  S
C319        C320   1.414       .  A
C320        C321   1.404       .  A
C320        H324   1.083       .  S
C321       C1383   1.471       .  S
C321        C322   1.387       .  A
C322        H325   1.087   1_545  S
C326       C1360   1.481       .  S
C326        C327   1.388       .  A
C326        C331   1.413       .  A
C327        C328   1.386       .  A
C327        H332   1.087       .  S
C328       C1413   1.474       .  S
C328        C329   1.407       .  A
C329        C330   1.417       .  A
C329        H333   1.083       .  S
C330        C556   1.493       .  S
C330        C331   1.421       .  A
C331        H334   1.083       .  S
C335        C822   1.498       .  S
C335        C336   1.418       .  A
C335        C340   1.426   1_655  A
C336        C337   1.404       .  A
C336        H341   1.083       .  S
C337       C1690   1.467       .  S
C337        C338   1.379       .  A
C338        C339   1.384   1_655  A
C338        H342   1.088       .  S
C339       C1353   1.482       .  S
C339        C340   1.417       .  A
C340        H343   1.083       .  S
C344        C842   1.481       .  S
C344        C345   1.416   1_565  A
C344        C349   1.408       .  A
C345        C346   1.416       .  A
C345        H350   1.083       .  S
C346       C1543   1.491       .  S
C346        C347   1.393   1_545  A
C347        C348   1.390       .  A
C347        H351   1.084       .  S
C348       C1370   1.469       .  S
C348        C349   1.397       .  A
C349        H352   1.084       .  S
C353        C833   1.501       .  S
C353        C354   1.425       .  A
C353        C358   1.421   1_554  A
C354        C355   1.411       .  A
C354        H359   1.083       .  S
C355       C1660   1.484       .  S
C355        C356   1.385       .  A
C356        C357   1.383   1_554  A
C356        H360   1.087       .  S
C357       C1573   1.475       .  S
C357        C358   1.410       .  A
C358        H361   1.083       .  S
C362       C1403   1.473       .  S
C362        C363   1.382       .  A
C362        C367   1.407       .  A
C363        C364   1.382       .  A
C363        H368   1.087       .  S
C364       C1803   1.473       .  S
C364        C365   1.407       .  A
C365        C366   1.416       .  A
C365        H369   1.083       .  S
C366        C523   1.482       .  S
C366        C367   1.417       .  A
C367        H370   1.083       .  S
C371        C741   1.480       .  S
C371        C372   1.407       .  A
C371        C376   1.421       .  A
C372        C373   1.395       .  A
C372        H377   1.084       .  S
C373       C1793   1.460       .  S
C373        C374   1.388       .  A
C374        C375   1.387       .  A
C374        H378   1.087       .  S
C375       C1393   1.481       .  S
C375        C376   1.415       .  A
C376        H379   1.083       .  S
C380        C716   1.497       .  S
C380        C381   1.415       .  A
C380        C385   1.428       .  A
C381        C382   1.404       .  A
C381        H386   1.083       .  S
C382       C1760   1.478       .  S
C382        C383   1.389       .  A
C383        C384   1.394       .  A
C383        H387   1.087       .  S
C384       C1733   1.502       .  S
C384        C385   1.419       .  A
C385        H388   1.083       .  S
C389        C705   1.493       .  S
C389        C390   1.415       .  A
C389        C394   1.420       .  A
C390        C391   1.407       .  A
C390        H395   1.083       .  S
C391       C1603   1.470       .  S
C391        C392   1.389       .  A
C392        C393   1.383       .  A
C392        H396   1.087       .  S
C393       C1750   1.478       .  S
C393        C394   1.411       .  A
C394        H397   1.083       .  S
C398       C1593   1.476       .  S
C398        C399   1.389       .  A
C398        C403   1.412       .  A
C399        C400   1.389       .  A
C399        H404   1.085       .  S
C400       C1783   1.480       .  S
C400        C401   1.405       .  A
C401        C402   1.408       .  A
C401        H405   1.083       .  S
C402        C698   1.484       .  S
C402        C403   1.417       .  A
C403        H406   1.083       .  S
C407        C768   1.487       .  S
C407        C408   1.417       .  A
C407        C412   1.417       .  A
C408        C409   1.407       .  A
C408        H413   1.083       .  S
C409       C1773   1.473       .  S
C409        C410   1.386       .  A
C410        C411   1.388       .  A
C410        H414   1.087       .  S
C411       C1723   1.476       .  S
C411        C412   1.405       .  A
C412        H415   1.083       .  S
C416       C1683   1.479       .  S
C416        C417   1.387       .  A
C416        C421   1.411       .  A
C417        C418   1.388       .  A
C417        H422   1.087       .  S
C418       C1743   1.475       .  S
C418        C419   1.408       .  A
C419        C420   1.418       .  A
C419        H423   1.083       .  S
C420        C514   1.492       .  S
C420        C421   1.420       .  A
C421        H424   1.083       .  S
O425       Ni431   1.964       .  S
O425        C446   1.284       .  A
O426       Ni449   1.951       .  S
O426        C435   1.284       .  A
O427       Ni431   1.879       .  S
O427       Ni449   1.908       .  S
O427       Ni443   1.890       .  S
O427        H450   0.967       .  S
C428        O445   1.278       .  A
C428        O437   1.274       .  A
C428       C1293   1.491       .  S
O429       Ni448   1.885       .  S
O429        C435   1.261       .  A
O430       Ni448   1.927       .  S
O430        C432   1.269       .  A
Ni431       O434   1.909       .  S
Ni431       O436   1.932       .  S
C432        O442   1.255       .  A
C432       C1280   1.473       .  S
O433       Ni449   1.930       .  S
O433        C439   1.288       .  A
O434        C439   1.276       .  A
C435       C1320   1.464       .  S
O436        C438   1.282       .  A
O437       Ni448   1.915       .  S
C438        O444   1.272       .  A
C438       C1270   1.472       .  S
C439       C1300   1.461       .  S
H440        O441   0.966       .  S
O441       Ni449   1.914       .  S
O441       Ni443   1.879       .  S
O441       Ni448   1.893       .  S
O442       Ni443   1.901       .  S
Ni443       O447   1.862       .  S
Ni443       O445   1.930       .  S
O444       Ni449   1.921       .  S
C446        O447   1.256       .  A
C446       C1313   1.476       .  S
O451       Ni457   1.972       .  S
O451        C472   1.287       .  A
O452       Ni475   1.981       .  S
O452        C461   1.284       .  A
O453       Ni457   1.869       .  S
O453       Ni475   1.906       .  S
O453       Ni469   1.870       .  S
O453        H476   0.967       .  S
C454        O471   1.275       .  A
C454        O463   1.278       .  A
C454       C1210   1.496       .  S
O455       Ni474   1.877       .  S
O455        C461   1.252       .  A
O456       Ni474   1.926       .  S
O456        C458   1.270       .  A
Ni457       O460   1.913       .  S
Ni457       O462   1.941       .  S
C458        O468   1.264       .  A
C458       C1220   1.496       .  S
O459       Ni475   1.939       .  S
O459        C465   1.297       .  A
O460        C465   1.283       .  A
C461       C1260   1.497       .  S
O462        C464   1.278       .  A
O463       Ni474   1.929       .  S
C464        O470   1.268       .  A
C464       C1250   1.488       .  S
C465       C1233   1.480       .  S
H466        O467   0.966       .  S
O467       Ni475   1.931       .  S
O467       Ni469   1.883       .  S
O467       Ni474   1.883       .  S
O468       Ni469   1.929       .  S
Ni469       O473   1.871       .  S
Ni469       O471   1.923       .  S
O470       Ni475   1.922       .  S
C472        O473   1.259       .  A
C472       C1243   1.472       .  S
C477        C478   1.423       .  A
C477        C482   1.424       .  A
C478        C479   1.415       .  A
C478        H483   1.083       .  S
C479       C1253   1.488       .  S
C479        C480   1.388       .  A
C480        C481   1.392       .  A
C480        H484   1.087       .  S
C481       C1203   1.493       .  S
C481        C482   1.414       .  A
C482        H485   1.083       .  S
O486       Ni492   1.963       .  S
O486        C507   1.284       .  A
O487       Ni510   1.961       .  S
O487        C496   1.286       .  A
O488       Ni492   1.871       .  S
O488       Ni510   1.902       .  S
O488       Ni504   1.880       .  S
O488        H511   0.967       .  S
C489        O506   1.278       .  A
C489        O498   1.278       .  A
C489       C1160   1.496       .  S
O490       Ni509   1.891       .  S
O490        C496   1.260       .  A
O491       Ni509   1.921       .  S
O491        C493   1.268       .  A
Ni492       O495   1.921       .  S
Ni492       O497   1.925       .  S
C493        O503   1.266       .  A
C493       C1180   1.496       .  S
O494       Ni510   1.947       .  S
O494        C500   1.296       .  A
O495        C500   1.281       .  A
C496       C1150   1.478       .  S
O497        C499   1.276       .  A
O498       Ni509   1.926       .  S
C499        O505   1.272       .  A
C499       C1200   1.483       .  S
C500       C1170   1.471       .  S
H501        O502   0.966       .  S
O502       Ni510   1.924       .  S
O502       Ni504   1.877       .  S
O502       Ni509   1.882       .  S
O503       Ni504   1.930       .  S
Ni504       O508   1.877       .  S
Ni504       O506   1.929       .  S
O505       Ni510   1.934       .  S
C507        O508   1.261       .  A
C507       C1190   1.470       .  S
C512       C1163   1.477       .  S
C512        C513   1.408       .  A
C512        C517   1.388       .  A
C513        C514   1.417       .  A
C513        H518   1.083       .  S
C514        C515   1.419       .  A
C515        C516   1.412       .  A
C515        H519   1.083       .  S
C516       C1140   1.486       .  S
C516        C517   1.390       .  A
C517        H520   1.086       .  S
C521       C1120   1.465       .  S
C521        C522   1.397       .  A
C521        C526   1.391       .  A
C522        C523   1.406       .  A
C522        H527   1.084       .  S
C523        C524   1.419       .  A
C524        C525   1.417       .  A
C524        H528   1.083       .  S
C525       C1130   1.483       .  S
C525        C526   1.389       .  A
C526        H529   1.087       .  S
O530       Ni536   1.955       .  S
O530        C551   1.284       .  A
O531       Ni554   1.964       .  S
O531        C540   1.284       .  A
O532       Ni536   1.879       .  S
O532       Ni554   1.910       .  S
O532       Ni548   1.888       .  S
O532        H555   0.967       .  S
C533        O550   1.277       .  A
C533        O542   1.276       .  A
C533       C1090   1.491       .  S
O534       Ni553   1.882       .  S
O534        C540   1.259       .  A
O535       Ni553   1.927       .  S
O535        C537   1.270       .  A
Ni536       O539   1.916       .  S
Ni536       O541   1.937       .  S
C537        O547   1.265       .  A
C537       C1103   1.487       .  S
O538       Ni554   1.938       .  S
O538        C544   1.294       .  A
O539        C544   1.280       .  A
C540       C1133   1.489       .  S
O541        C543   1.278       .  A
O542       Ni553   1.921       .  S
C543        O549   1.267       .  A
C543       C1143   1.484       .  S
C544       C1110   1.474       .  S
H545        O546   0.966       .  S
O546       Ni554   1.921       .  S
O546       Ni548   1.882       .  S
O546       Ni553   1.889       .  S
O547       Ni548   1.931       .  S
Ni548       O552   1.886       .  S
Ni548       O550   1.924       .  S
O549       Ni554   1.914       .  S
C551        O552   1.264       .  A
C551       C1083   1.478       .  S
C556        C557   1.418       .  A
C556        C561   1.420       .  A
C557        C558   1.410       .  A
C557        H562   1.083       .  S
C558       C1153   1.475       .  S
C558        C559   1.382       .  A
C559        C560   1.388       .  A
C559        H563   1.087       .  S
C560       C1273   1.479       .  S
C560        C561   1.411       .  A
C561        H564   1.083       .  S
O565       Ni571   1.949       .  S
O565        C586   1.282       .  A
O566       Ni589   1.954       .  S
O566        C575   1.278       .  A
O567       Ni571   1.873       .  S
O567       Ni589   1.906       .  S
O567       Ni583   1.883       .  S
O567        H590   0.967       .  S
C568        O585   1.279       .  A
C568        O577   1.277       .  A
C568       C1070   1.491       .  S
O569       Ni588   1.873       .  S
O569        C575   1.254       .  A
O570       Ni588   1.924       .  S
O570        C572   1.267       .  A
Ni571       O574   1.909       .  S
Ni571       O576   1.926       .  S
C572        O582   1.260       .  A
C572       C1053   1.482       .  S
O573       Ni589   1.932       .  S
O573        C579   1.291       .  A
O574        C579   1.278       .  A
C575       C1043   1.482       .  S
O576        C578   1.275       .  A
O577       Ni588   1.917       .  S
C578        O584   1.264       .  A
C578       C1060   1.462       .  S
C579       C1033   1.458       .  S
H580        O581   0.966       .  S
O581       Ni589   1.921       .  S
O581       Ni583   1.867       .  S
O581       Ni588   1.884       .  S
O582       Ni583   1.926       .  S
Ni583       O587   1.868       .  S
Ni583       O585   1.927       .  S
O584       Ni589   1.903       .  S
C586        O587   1.259       .  A
C586       C1123   1.466       .  S
C591       C1073   1.472       .  S
C591        C592   1.408       .  A
C591        C596   1.388   1_554  A
C592        C593   1.417   1_554  A
C592        H597   1.083       .  S
C593        C594   1.415       .  A
C594        C595   1.403       .  A
C594        H598   1.084       .  S
C595       C1023   1.468       .  S
C595        C596   1.382       .  A
C596        H599   1.088       .  S
O600       Ni606   1.964       .  S
O600        C621   1.285       .  A
O601       Ni624   1.953       .  S
O601        C610   1.281       .  A
O602       Ni606   1.877       .  S
O602       Ni624   1.899       .  S
O602       Ni618   1.877       .  S
O602        H625   0.967       .  S
C603        O620   1.275       .  A
C603        O612   1.277       .  A
C603       C1013   1.485       .  S
O604       Ni623   1.896       .  S
O604        C610   1.261       .  A
O605       Ni623   1.918       .  S
O605        C607   1.268       .  A
Ni606       O609   1.919       .  S
Ni606       O611   1.942       .  S
C607        O617   1.263       .  A
C607        C983   1.483       .  S
O608       Ni624   1.935       .  S
O608        C614   1.293       .  A
O609        C614   1.281       .  A
C610        C960   1.476       .  S
O611        C613   1.279       .  A
O612       Ni623   1.925       .  S
C613        O619   1.265       .  A
C613        C990   1.478       .  S
C614        C973   1.477       .  S
H615        O616   0.966       .  S
O616       Ni624   1.923       .  S
O616       Ni618   1.881       .  S
O616       Ni623   1.883       .  S
O617       Ni618   1.917       .  S
Ni618       O622   1.865       .  S
Ni618       O620   1.922       .  S
O619       Ni624   1.908       .  S
C621        O622   1.260       .  A
C621       C1003   1.466       .  S
C626       C1010   1.475   1_565  S
C626        C627   1.386       .  A
C626        C631   1.407       .  A
C627        C628   1.385       .  A
C627        H632   1.088       .  S
C628        C950   1.474       .  S
C628        C629   1.407       .  A
C629        C630   1.419       .  A
C629        H633   1.083       .  S
C630        C631   1.418       .  A
C631        H634   1.083   1_565  S
O635       Ni641   1.958       .  S
O635        C656   1.285       .  A
O636       Ni659   1.950       .  S
O636        C645   1.279       .  A
O637       Ni641   1.880       .  S
O637       Ni659   1.895       .  S
O637       Ni653   1.881       .  S
O637        H660   0.967       .  S
C638        O655   1.273       .  A
C638        O647   1.277       .  A
C638        C910   1.484       .  S
O639       Ni658   1.892       .  S
O639        C645   1.262       .  A
O640       Ni658   1.924       .  S
O640        C642   1.269       .  A
Ni641       O644   1.921       .  S
Ni641       O646   1.937       .  S
C642        O652   1.261       .  A
C642        C953   1.488       .  S
O643       Ni659   1.929       .  S
O643        C649   1.290       .  A
O644        C649   1.277       .  A
C645        C920   1.485       .  S
O646        C648   1.280       .  A
O647       Ni658   1.925       .  S
C648        O654   1.268       .  A
C648        C930   1.492       .  S
C649       C1020   1.462       .  S
H650        O651   0.966       .  S
O651       Ni659   1.921       .  S
O651       Ni653   1.880       .  S
O651       Ni658   1.889       .  S
O652       Ni653   1.911       .  S
Ni653       O657   1.864       .  S
Ni653       O655   1.916       .  S
O654       Ni659   1.914       .  S
C656        O657   1.259       .  A
C656        C940   1.467       .  S
O661       Ni667   1.954       .  S
O661        C682   1.282       .  A
O662       Ni685   1.952       .  S
O662        C671   1.280       .  A
O663       Ni667   1.871       .  S
O663       Ni685   1.897       .  S
O663       Ni679   1.878       .  S
O663        H686   0.967       .  S
C664        O681   1.274       .  A
C664        O673   1.277       .  A
C664        C900   1.493       .  S
O665       Ni684   1.887       .  S
O665        C671   1.260       .  A
O666       Ni684   1.925       .  S
O666        C668   1.271       .  A
Ni667       O670   1.909       .  S
Ni667       O672   1.928       .  S
C668        O678   1.265       .  A
C668        C870   1.487       .  S
O669       Ni685   1.940       .  S
O669        C675   1.295       .  A
O670        C675   1.280       .  A
C671        C853   1.485       .  S
O672        C674   1.275       .  A
O673       Ni684   1.928       .  S
C674        O680   1.264       .  A
C674        C880   1.474       .  S
C675        C860   1.460       .  S
H676        O677   0.966       .  S
O677       Ni685   1.923       .  S
O677       Ni679   1.875       .  S
O677       Ni684   1.881       .  S
O678       Ni679   1.925       .  S
Ni679       O683   1.874       .  S
Ni679       O681   1.917       .  S
O680       Ni685   1.906       .  S
C682        O683   1.261       .  A
C682        C890   1.461   1_455  S
C687        C688   1.415   1_655  A
C687        C692   1.411       .  A
C688        C689   1.405   1_455  A
C688        H693   1.083       .  S
C689        C903   1.473   1_655  S
C689        C690   1.387       .  A
C690        C691   1.388       .  A
C690        H694   1.087       .  S
C691        C943   1.470       .  S
C691        C692   1.400       .  A
C692        H695   1.084       .  S
C696       C1323   1.478       .  S
C696        C697   1.411       .  A
C696        C701   1.383       .  A
C697        C698   1.420       .  A
C697        H702   1.083       .  S
C698        C699   1.412       .  A
C699        C700   1.402       .  A
C699        H703   1.084       .  S
C700        C893   1.473       .  S
C700        C701   1.391       .  A
C701        H704   1.086       .  S
C705        C706   1.415       .  A
C705        C710   1.421       .  A
C706        C707   1.408       .  A
C706        H711   1.083       .  S
C707       C1303   1.479       .  S
C707        C708   1.387       .  A
C708        C709   1.387       .  A
C708        H712   1.087       .  S
C709        C883   1.478       .  S
C709        C710   1.411       .  A
C710        H713   1.083       .  S
C714       C1263   1.499       .  S
C714        C715   1.421       .  A
C714        C719   1.389       .  A
C715        C716   1.426       .  A
C715        H720   1.083       .  S
C716        C717   1.413       .  A
C717        C718   1.404       .  A
C717        H721   1.083       .  S
C718       C1000   1.469       .  S
C718        C719   1.387       .  A
C719        H722   1.086       .  S
C723        C724   1.416       .  A
C723        C728   1.412   1_455  A
C724        C725   1.409       .  A
C724        H729   1.083       .  S
C725       C1290   1.472       .  S
C725        C726   1.390       .  A
C726        C727   1.383   1_455  A
C726        H730   1.087       .  S
C727        C970   1.472       .  S
C727        C728   1.405       .  A
C728        H731   1.084       .  S
C732        C963   1.477       .  S
C732        C733   1.413       .  A
C732        C737   1.386       .  A
C733        C734   1.417       .  A
C733        H738   1.083       .  S
C734        C735   1.420   1_655  A
C735        C736   1.411       .  A
C735        H739   1.083       .  S
C736       C1283   1.482       .  S
C736        C737   1.388   1_455  A
C737        H740   1.087       .  S
C741        C742   1.417       .  A
C741        C746   1.413       .  A
C742        C743   1.409       .  A
C742        H747   1.083       .  S
C743       C1113   1.473       .  S
C743        C744   1.384       .  A
C744        C745   1.385       .  A
C744        H748   1.087       .  S
C745       C1063   1.466       .  S
C745        C746   1.402       .  A
C746        H749   1.083       .  S
C750       C1223   1.486       .  S
C750        C751   1.388       .  A
C750        C755   1.418       .  A
C751        C752   1.386   1_545  A
C751        H756   1.086       .  S
C752       C1040   1.479       .  S
C752        C753   1.403       .  A
C753        C754   1.411   1_565  A
C753        H757   1.084       .  S
C754        C755   1.425       .  A
C755        H758   1.082       .  S
C759       C1100   1.491   1_556  S
C759        C760   1.391       .  A
C759        C764   1.419       .  A
C760        C761   1.387       .  A
C760        H765   1.087       .  S
C761        C850   1.478       .  S
C761        C762   1.409       .  A
C762        C763   1.414       .  A
C762        H766   1.084       .  S
C763        C764   1.425       .  A
C764        H767   1.083   1_556  S
C768        C769   1.418       .  A
C768        C773   1.410       .  A
C769        C770   1.413       .  A
C769        H774   1.083       .  S
C770        C993   1.481       .  S
C770        C771   1.392       .  A
C771        C772   1.385       .  A
C771        H775   1.085       .  S
C772       C1230   1.474       .  S
C772        C773   1.403       .  A
C773        H776   1.084       .  S
C777        C778   1.418       .  A
C777        C782   1.422       .  A
C778        C779   1.409       .  A
C778        H783   1.083       .  S
C779       C1080   1.480       .  S
C779        C780   1.390       .  A
C780        C781   1.387       .  A
C780        H784   1.087       .  S
C781       C1183   1.484       .  S
C781        C782   1.413       .  A
C782        H785   1.083       .  S
C786       C1093   1.473       .  S
C786        C787   1.386   1_554  A
C786        C791   1.407       .  A
C787        C788   1.384       .  A
C787        H792   1.088   1_556  S
C788        C863   1.473       .  S
C788        C789   1.407       .  A
C789        C790   1.416       .  A
C789        H793   1.083       .  S
C790        C791   1.418   1_556  A
C791        H794   1.083       .  S
C795        C796   1.422       .  A
C795        C800   1.415   1_545  A
C796        C797   1.412       .  A
C796        H801   1.083       .  S
C797       C1213   1.478       .  S
C797        C798   1.385       .  A
C798        C799   1.383   1_545  A
C798        H802   1.087       .  S
C799       C1030   1.475       .  S
C799        C800   1.406       .  A
C800        H803   1.084       .  S
C804        C805   1.420       .  A
C804        C809   1.421       .  A
C805        C806   1.408       .  A
C805        H810   1.083       .  S
C806       C1193   1.480       .  S
C806        C807   1.388       .  A
C807        C808   1.385       .  A
C807        H811   1.087       .  S
C808       C1240   1.477       .  S
C808        C809   1.409       .  A
C809        H812   1.083       .  S
C813        C814   1.415       .  A
C813        C818   1.422       .  A
C814        C815   1.404       .  A
C814        H819   1.083       .  S
C815       C1310   1.469       .  S
C815        C816   1.385       .  A
C816        C817   1.384       .  A
C816        H820   1.088       .  S
C817       C1173   1.479       .  S
C817        C818   1.415       .  A
C818        H821   1.083       .  S
C822        C823   1.420       .  A
C822        C827   1.420   1_655  A
C823        C824   1.414       .  A
C823        H828   1.083       .  S
C824        C933   1.489       .  S
C824        C825   1.391       .  A
C825        C826   1.388       .  A
C825        H829   1.086       .  S
C826        C873   1.478   1_655  S
C826        C827   1.409   1_655  A
C827        H830   1.083       .  S
C831       C1050   1.486       .  S
C831        C832   1.415       .  A
C831        C836   1.393       .  A
C832        C833   1.423       .  A
C832        H837   1.083       .  S
C833        C834   1.415       .  A
C834        C835   1.409       .  A
C834        H838   1.083   1_554  S
C835        C923   1.478   1_554  S
C835        C836   1.388       .  A
C836        H839   1.087       .  S
C840        C980   1.473       .  S
C840        C841   1.409       .  A
C840        C845   1.391   1_545  A
C841        C842   1.416   1_545  A
C841        H846   1.083       .  S
C842        C843   1.414       .  A
C843        C844   1.400       .  A
C843        H847   1.084       .  S
C844        C913   1.470       .  S
C844        C845   1.385       .  A
C845        H848   1.088   1_455  S
C849        C850   1.401       .  A
C849        C854   1.389       .  A
C849        F856   1.359       .  S
C850        C851   1.413       .  A
C851        C852   1.408       .  A
C851        F858   1.357       .  S
C852        C853   1.407       .  A
C852        F857   1.357       .  S
C853        C854   1.411       .  A
C854        F855   1.354       .  S
C859        C860   1.398       .  A
C859        C864   1.394       .  A
C859        F866   1.358       .  S
C860        C861   1.409       .  A
C861        C862   1.401       .  A
C861        F868   1.358       .  S
C862        C863   1.401       .  A
C862        F867   1.357       .  S
C863        C864   1.411       .  A
C864        F865   1.359       .  S
C869        C870   1.408       .  A
C869        C874   1.410   1_456  A
C869        F876   1.357   1_455  S
C870        C871   1.405       .  A
C871        C872   1.393   1_556  A
C871        F878   1.350       .  S
C872        C873   1.402       .  A
C872        F877   1.359       .  S
C873        C874   1.411   1_455  A
C874        F875   1.357       .  S
C879        C880   1.403       .  A
C879        C884   1.395       .  A
C879        F886   1.358       .  S
C880        C881   1.408       .  A
C881        C882   1.407       .  A
C881        F888   1.357       .  S
C882        C883   1.407       .  A
C882        F887   1.357       .  S
C883        C884   1.408       .  A
C884        F885   1.359       .  S
C889        C890   1.399       .  A
C889        C894   1.392       .  A
C889        F896   1.358   1_655  S
C890        C891   1.405       .  A
C891        C892   1.398       .  A
C891        F898   1.358       .  S
C892        C893   1.403       .  A
C892        F897   1.357       .  S
C893        C894   1.411       .  A
C894        F895   1.359       .  S
C899        C900   1.413       .  A
C899        C904   1.405       .  A
C899        F906   1.357       .  S
C900        C901   1.412       .  A
C901        C902   1.393       .  A
C901        F908   1.355       .  S
C902        C903   1.403       .  A
C902        F907   1.359   1_455  S
C903        C904   1.405       .  A
C904        F905   1.358       .  S
C909        C910   1.406       .  A
C909        C914   1.400   1_655  A
C909        F916   1.358   1_565  S
C910        C911   1.414       .  A
C911        C912   1.397   1_655  A
C911        F918   1.357       .  S
C912        C913   1.398       .  A
C912        F917   1.358       .  S
C913        C914   1.408       .  A
C914        F915   1.358   1_565  S
C919        C920   1.408       .  A
C919        C924   1.408   1_566  A
C919        F926   1.357       .  S
C920        C921   1.411   1_565  A
C921        C922   1.389       .  A
C921        F928   1.356       .  S
C922        C923   1.402       .  A
C922        F927   1.359       .  S
C923        C924   1.411   1_556  A
C924        F925   1.357       .  S
C929        C930   1.403       .  A
C929        C934   1.401       .  A
C929        F936   1.358       .  S
C930        C931   1.421       .  A
C931        C932   1.400   1_556  A
C931        F938   1.358       .  S
C932        C933   1.398       .  A
C932        F937   1.358       .  S
C933        C934   1.417   1_554  A
C934        F935   1.359   1_655  S
C939        C940   1.401       .  A
C939        C944   1.395       .  A
C939        F946   1.358       .  S
C940        C941   1.408       .  A
C941        C942   1.397       .  A
C941        F948   1.357       .  S
C942        C943   1.403       .  A
C942        F947   1.358       .  S
C943        C944   1.409       .  A
C944        F945   1.358       .  S
C949        C950   1.406       .  A
C949        C954   1.399       .  A
C949        F956   1.358       .  S
C950        C951   1.406       .  A
C951        C952   1.403       .  A
C951        F958   1.358       .  S
C952        C953   1.411       .  A
C952        F957   1.358       .  S
C953        C954   1.408       .  A
C954        F955   1.355       .  S
C959        C960   1.405       .  A
C959        C964   1.407       .  A
C959        F966   1.357       .  S
C960        C961   1.407       .  A
C961        C962   1.393       .  A
C961        F968   1.357       .  S
C962        C963   1.404       .  A
C962        F967   1.359       .  S
C963        C964   1.413       .  A
C964        F965   1.357       .  S
C969        C970   1.410       .  A
C969        C974   1.401       .  A
C969        F976   1.358   1_655  S
C970        C971   1.398       .  A
C971        C972   1.393       .  A
C971        F978   1.359       .  S
C972        C973   1.415       .  A
C972        F977   1.359       .  S
C973        C974   1.404       .  A
C974        F975   1.357       .  S
C979        C980   1.406   1_655  A
C979        C984   1.406       .  A
C979        F986   1.357   1_645  S
C980        C981   1.405   1_455  A
C981        C982   1.392       .  A
C981        F988   1.359   1_655  S
C982        C983   1.406       .  A
C982        F987   1.355       .  S
C983        C984   1.410       .  A
C984        F985   1.357       .  S
C989        C990   1.400       .  A
C989        C994   1.403       .  A
C989        F996   1.357       .  S
C990        C991   1.413       .  A
C991        C992   1.397       .  A
C991        F998   1.358       .  S
C992        C993   1.400       .  A
C992        F997   1.358       .  S
C993        C994   1.415       .  A
C994        F995   1.358       .  S
C999       C1000   1.408       .  A
C999       C1004   1.403   1_565  A
C999       F1006   1.357       .  S
C1000      C1001   1.406       .  A
C1001      C1002   1.393       .  A
C1001      F1008   1.359       .  S
C1002      C1003   1.400   1_565  A
C1002      F1007   1.354   1_565  S
C1003      C1004   1.403       .  A
C1004      F1005   1.357       .  S
C1009      C1010   1.406       .  A
C1009      C1014   1.404       .  A
C1009      F1016   1.358       .  S
C1010      C1011   1.406       .  A
C1011      C1012   1.395       .  A
C1011      F1018   1.359   1_545  S
C1012      C1013   1.407       .  A
C1012      F1017   1.358   1_545  S
C1013      C1014   1.410       .  A
C1014      F1015   1.358       .  S
C1019      C1020   1.404       .  A
C1019      C1024   1.398       .  A
C1019      F1026   1.358       .  S
C1020      C1021   1.405       .  A
C1021      C1022   1.396       .  A
C1021      F1028   1.359       .  S
C1022      C1023   1.406       .  A
C1022      F1027   1.358   1_556  S
C1023      C1024   1.405       .  A
C1024      F1025   1.357       .  S
C1029      C1030   1.413       .  A
C1029      C1034   1.395       .  A
C1029      F1036   1.359       .  S
C1030      C1031   1.401       .  A
C1031      C1032   1.397       .  A
C1031      F1038   1.357       .  S
C1032      C1033   1.407       .  A
C1032      F1037   1.358       .  S
C1033      C1034   1.399       .  A
C1034      F1035   1.358       .  S
C1039      C1040   1.396       .  A
C1039      C1044   1.387       .  A
C1039      F1046   1.358       .  S
C1040      C1041   1.416       .  A
C1041      C1042   1.402       .  A
C1041      F1048   1.358       .  S
C1042      C1043   1.402       .  A
C1042      F1047   1.357       .  S
C1043      C1044   1.420       .  A
C1044      F1045   1.359       .  S
C1049      C1050   1.401       .  A
C1049      C1054   1.404   1_545  A
C1049      F1056   1.357       .  S
C1050      C1051   1.416       .  A
C1051      C1052   1.402   1_545  A
C1051      F1058   1.358   1_554  S
C1052      C1053   1.398       .  A
C1052      F1057   1.357   1_554  S
C1053      C1054   1.412       .  A
C1054      F1055   1.355       .  S
C1059      C1060   1.405       .  A
C1059      C1064   1.405       .  A
C1059      F1066   1.357       .  S
C1060      C1061   1.401       .  A
C1061      C1062   1.388       .  A
C1061      F1068   1.357       .  S
C1062      C1063   1.403       .  A
C1062      F1067   1.359       .  S
C1063      C1064   1.408       .  A
C1064      F1065   1.358       .  S
C1069      C1070   1.409       .  A
C1069      C1074   1.403       .  A
C1069      F1076   1.358       .  S
C1070      C1071   1.413       .  A
C1071      C1072   1.399       .  A
C1071      F1078   1.355       .  S
C1072      C1073   1.401       .  A
C1072      F1077   1.358       .  S
C1073      C1074   1.410       .  A
C1074      F1075   1.358       .  S
C1079      C1080   1.410       .  A
C1079      C1084   1.396       .  A
C1079      F1086   1.359       .  S
C1080      C1081   1.404       .  A
C1081      C1082   1.406       .  A
C1081      F1088   1.357       .  S
C1082      C1083   1.411       .  A
C1082      F1087   1.357       .  S
C1083      C1084   1.401       .  A
C1084      F1085   1.358       .  S
C1089      C1090   1.410       .  A
C1089      C1094   1.403       .  A
C1089      F1096   1.358   1_554  S
C1090      C1091   1.412       .  A
C1091      C1092   1.399       .  A
C1091      F1098   1.356       .  S
C1092      C1093   1.403       .  A
C1092      F1097   1.358       .  S
C1093      C1094   1.408       .  A
C1094      F1095   1.358   1_554  S
C1099      C1100   1.400       .  A
C1099      C1104   1.406       .  A
C1099      F1106   1.357       .  S
C1100      C1101   1.418       .  A
C1101      C1102   1.404       .  A
C1101      F1108   1.359       .  S
C1102      C1103   1.399       .  A
C1102      F1107   1.358       .  S
C1103      C1104   1.413       .  A
C1104      F1105   1.354       .  S
C1109      C1110   1.400       .  A
C1109      C1114   1.399       .  A
C1109      F1116   1.358       .  S
C1110      C1111   1.414       .  A
C1111      C1112   1.397       .  A
C1111      F1118   1.359       .  S
C1112      C1113   1.398       .  A
C1112      F1117   1.358       .  S
C1113      C1114   1.413       .  A
C1114      F1115   1.358       .  S
C1119      C1120   1.398       .  A
C1119      C1124   1.397       .  A
C1119      F1126   1.358       .  S
C1120      C1121   1.408       .  A
C1121      C1122   1.389       .  A
C1121      F1128   1.359       .  S
C1122      C1123   1.399   1_556  A
C1122      F1127   1.358   1_556  S
C1123      C1124   1.413   1_554  A
C1124      F1125   1.358       .  S
C1129      C1130   1.413       .  A
C1129      C1134   1.409   1_556  A
C1129      F1136   1.357       .  S
C1130      C1131   1.401       .  A
C1131      C1132   1.395       .  A
C1131      F1138   1.359       .  S
C1132      C1133   1.415   1_556  A
C1132      F1137   1.359       .  S
C1133      C1134   1.406       .  A
C1134      F1135   1.357       .  S
C1139      C1140   1.401       .  A
C1139      C1144   1.400       .  A
C1139      F1146   1.358       .  S
C1140      C1141   1.415       .  A
C1141      C1142   1.402       .  A
C1141      F1148   1.358       .  S
C1142      C1143   1.401       .  A
C1142      F1147   1.357       .  S
C1143      C1144   1.415       .  A
C1144      F1145   1.358       .  S
C1149      C1150   1.411       .  A
C1149      C1154   1.394       .  A
C1149      F1156   1.358       .  S
C1150      C1151   1.404       .  A
C1151      C1152   1.407       .  A
C1151      F1158   1.357       .  S
C1152      C1153   1.413       .  A
C1152      F1157   1.358       .  S
C1153      C1154   1.399       .  A
C1154      F1155   1.358       .  S
C1159      C1160   1.413       .  A
C1159      C1164   1.406       .  A
C1159      F1166   1.357       .  S
C1160      C1161   1.413       .  A
C1161      C1162   1.396       .  A
C1161      F1168   1.356       .  S
C1162      C1163   1.403       .  A
C1162      F1167   1.359       .  S
C1163      C1164   1.406       .  A
C1164      F1165   1.358       .  S
C1169      C1170   1.403       .  A
C1169      C1174   1.398       .  A
C1169      F1176   1.357       .  S
C1170      C1171   1.407       .  A
C1171      C1172   1.406       .  A
C1171      F1178   1.357       .  S
C1172      C1173   1.406       .  A
C1172      F1177   1.357       .  S
C1173      C1174   1.409       .  A
C1174      F1175   1.359       .  S
C1179      C1180   1.412       .  A
C1179      C1184   1.408       .  A
C1179      F1186   1.357       .  S
C1180      C1181   1.411       .  A
C1181      C1182   1.400       .  A
C1181      F1188   1.357       .  S
C1182      C1183   1.406       .  A
C1182      F1187   1.358       .  S
C1183      C1184   1.407       .  A
C1184      F1185   1.357       .  S
C1189      C1190   1.407       .  A
C1189      C1194   1.402       .  A
C1189      F1196   1.358       .  S
C1190      C1191   1.399       .  A
C1191      C1192   1.396       .  A
C1191      F1198   1.358       .  S
C1192      C1193   1.412       .  A
C1192      F1197   1.359       .  S
C1193      C1194   1.404       .  A
C1194      F1195   1.357       .  S
C1199      C1200   1.411       .  A
C1199      C1204   1.415       .  A
C1199      F1206   1.357       .  S
C1200      C1201   1.402       .  A
C1201      C1202   1.392       .  A
C1201      F1208   1.358       .  S
C1202      C1203   1.410       .  A
C1202      F1207   1.359       .  S
C1203      C1204   1.409       .  A
C1204      F1205   1.357       .  S
C1209      C1210   1.412       .  A
C1209      C1214   1.405       .  A
C1209      F1216   1.357       .  S
C1210      C1211   1.412       .  A
C1211      C1212   1.400       .  A
C1211      F1218   1.357       .  S
C1212      C1213   1.407       .  A
C1212      F1217   1.359       .  S
C1213      C1214   1.407       .  A
C1214      F1215   1.358       .  S
C1219      C1220   1.409       .  A
C1219      C1224   1.398       .  A
C1219      F1226   1.354       .  S
C1220      C1221   1.411       .  A
C1221      C1222   1.412       .  A
C1221      F1228   1.357       .  S
C1222      C1223   1.410       .  A
C1222      F1227   1.357       .  S
C1223      C1224   1.407       .  A
C1224      F1225   1.359       .  S
C1229      C1230   1.413       .  A
C1229      C1234   1.400       .  A
C1229      F1236   1.358       .  S
C1230      C1231   1.396       .  A
C1231      C1232   1.389       .  A
C1231      F1238   1.359       .  S
C1232      C1233   1.418       .  A
C1232      F1237   1.359       .  S
C1233      C1234   1.403       .  A
C1234      F1235   1.357       .  S
C1239      C1240   1.410       .  A
C1239      C1244   1.400       .  A
C1239      F1246   1.358       .  S
C1240      C1241   1.406       .  A
C1241      C1242   1.402       .  A
C1241      F1248   1.358       .  S
C1242      C1243   1.406       .  A
C1242      F1247   1.358       .  S
C1243      C1244   1.401       .  A
C1244      F1245   1.357       .  S
C1249      C1250   1.401       .  A
C1249      C1254   1.407       .  A
C1249      F1256   1.357       .  S
C1250      C1251   1.413       .  A
C1251      C1252   1.403       .  A
C1251      F1258   1.356       .  S
C1252      C1253   1.401       .  A
C1252      F1257   1.358       .  S
C1253      C1254   1.416       .  A
C1254      F1255   1.358       .  S
C1259      C1260   1.423   1_565  A
C1259      C1264   1.398       .  A
C1259      F1266   1.359       .  S
C1260      C1261   1.400       .  A
C1261      C1262   1.408   1_545  A
C1261      F1268   1.357       .  S
C1262      C1263   1.423       .  A
C1262      F1267   1.358   1_565  S
C1263      C1264   1.396       .  A
C1264      F1265   1.358       .  S
C1269      C1270   1.403       .  A
C1269      C1274   1.393       .  A
C1269      F1276   1.357       .  S
C1270      C1271   1.406       .  A
C1271      C1272   1.408       .  A
C1271      F1278   1.357       .  S
C1272      C1273   1.408       .  A
C1272      F1277   1.357       .  S
C1273      C1274   1.408       .  A
C1274      F1275   1.359       .  S
C1279      C1280   1.396       .  A
C1279      C1284   1.399       .  A
C1279      F1286   1.358       .  S
C1280      C1281   1.412       .  A
C1281      C1282   1.402       .  A
C1281      F1288   1.354       .  S
C1282      C1283   1.398       .  A
C1282      F1287   1.357       .  S
C1283      C1284   1.417       .  A
C1284      F1285   1.358       .  S
C1289      C1290   1.407       .  A
C1289      C1294   1.401       .  A
C1289      F1296   1.358   1_455  S
C1290      C1291   1.403       .  A
C1291      C1292   1.400       .  A
C1291      F1298   1.358       .  S
C1292      C1293   1.412       .  A
C1292      F1297   1.357       .  S
C1293      C1294   1.410       .  A
C1294      F1295   1.358   1_455  S
C1299      C1300   1.401       .  A
C1299      C1304   1.395       .  A
C1299      F1306   1.358       .  S
C1300      C1301   1.407       .  A
C1301      C1302   1.400       .  A
C1301      F1308   1.358       .  S
C1302      C1303   1.406       .  A
C1302      F1307   1.358       .  S
C1303      C1304   1.410       .  A
C1304      F1305   1.358       .  S
C1309      C1310   1.399       .  A
C1309      C1314   1.397       .  A
C1309      F1316   1.358       .  S
C1310      C1311   1.410       .  A
C1311      C1312   1.398       .  A
C1311      F1318   1.358       .  S
C1312      C1313   1.402       .  A
C1312      F1317   1.358       .  S
C1313      C1314   1.413       .  A
C1314      F1315   1.358       .  S
C1319      C1320   1.402       .  A
C1319      C1324   1.399   1_455  A
C1319      F1326   1.358       .  S
C1320      C1321   1.408   1_455  A
C1321      C1322   1.402       .  A
C1321      F1328   1.358       .  S
C1322      C1323   1.404       .  A
C1322      F1327   1.358       .  S
C1323      C1324   1.409       .  A
C1324      F1325   1.358       .  S
C1329      C1330   1.410       .  A
C1329      C1334   1.400       .  A
C1329      F1336   1.357       .  S
C1330      C1331   1.412       .  A
C1331      C1332   1.407   1_565  A
C1331      F1338   1.358       .  S
C1332      C1333   1.407       .  A
C1332      F1337   1.358       .  S
C1333      C1334   1.406   1_545  A
C1334      F1335   1.358   1_565  S
C1339      C1340   1.415       .  A
C1339      C1344   1.392       .  A
C1339      F1346   1.358       .  S
C1340      C1341   1.402   1_455  A
C1341      C1342   1.393       .  A
C1341      F1348   1.358       .  S
C1342      C1343   1.408   1_655  A
C1342      F1347   1.358       .  S
C1343      C1344   1.396       .  A
C1344      F1345   1.358       .  S
C1349      C1350   1.404       .  A
C1349      C1354   1.398       .  A
C1349      F1356   1.358   1_455  S
C1350      C1351   1.409       .  A
C1351      C1352   1.408       .  A
C1351      F1358   1.357       .  S
C1352      C1353   1.409       .  A
C1352      F1357   1.358       .  S
C1353      C1354   1.409       .  A
C1354      F1355   1.358   1_455  S
C1359      C1360   1.404       .  A
C1359      C1364   1.403       .  A
C1359      F1366   1.358       .  S
C1360      C1361   1.407       .  A
C1361      C1362   1.404       .  A
C1361      F1368   1.358       .  S
C1362      C1363   1.413       .  A
C1362      F1367   1.357       .  S
C1363      C1364   1.414       .  A
C1364      F1365   1.358       .  S
C1369      C1370   1.408       .  A
C1369      C1374   1.397       .  A
C1369      F1376   1.358       .  S
C1370      C1371   1.399       .  A
C1371      C1372   1.394       .  A
C1371      F1378   1.358       .  S
C1372      C1373   1.414       .  A
C1372      F1377   1.358       .  S
C1373      C1374   1.405       .  A
C1374      F1375   1.358       .  S
C1379      C1380   1.414       .  A
C1379      C1384   1.399   1_565  A
C1379      F1386   1.358       .  S
C1380      C1381   1.413       .  A
C1381      C1382   1.399   1_565  A
C1381      F1388   1.358       .  S
C1382      C1383   1.403       .  A
C1382      F1387   1.358       .  S
C1383      C1384   1.403       .  A
C1384      F1385   1.358       .  S
C1389      C1390   1.400       .  A
C1389      C1394   1.394       .  A
C1389      F1396   1.359       .  S
C1390      C1391   1.410       .  A
C1391      C1392   1.408       .  A
C1391      F1398   1.358       .  S
C1392      C1393   1.404       .  A
C1392      F1397   1.357       .  S
C1393      C1394   1.410       .  A
C1394      F1395   1.358       .  S
C1399      C1400   1.399       .  A
C1399      C1404   1.391       .  A
C1399      F1406   1.358       .  S
C1400      C1401   1.409       .  A
C1401      C1402   1.402       .  A
C1401      F1408   1.358       .  S
C1402      C1403   1.403       .  A
C1402      F1407   1.357       .  S
C1403      C1404   1.410       .  A
C1404      F1405   1.359       .  S
C1409      C1410   1.416       .  A
C1409      C1414   1.400       .  A
C1409      F1416   1.358       .  S
C1410      C1411   1.409       .  A
C1411      C1412   1.399       .  A
C1411      F1418   1.358       .  S
C1412      C1413   1.407       .  A
C1412      F1417   1.358       .  S
C1413      C1414   1.401       .  A
C1414      F1415   1.358       .  S
C1419      C1420   1.396       .  A
C1419      C1424   1.396       .  A
C1419      F1426   1.358       .  S
C1420      C1421   1.412       .  A
C1421      C1422   1.398       .  A
C1421      F1428   1.358       .  S
C1422      C1423   1.401       .  A
C1422      F1427   1.358       .  S
C1423      C1424   1.414       .  A
C1424      F1425   1.354       .  S
C1429      C1430   1.416       .  A
C1429      C1434   1.404   1_556  A
C1429      F1436   1.358   1_455  S
C1430      C1431   1.396       .  A
C1431      C1432   1.399       .  A
C1431      F1438   1.358       .  S
C1432      C1433   1.421   1_556  A
C1432      F1437   1.358       .  S
C1433      C1434   1.403       .  A
C1434      F1435   1.357   1_455  S
C1439      C1440   1.408       .  A
C1439      C1444   1.399       .  A
C1439      F1446   1.358       .  S
C1440      C1441   1.401       .  A
C1441      C1442   1.390       .  A
C1441      F1448   1.358   1_565  S
C1442      C1443   1.404       .  A
C1442      F1447   1.358       .  S
C1443      C1444   1.402       .  A
C1444      F1445   1.358       .  S
C1449      C1450   1.406       .  A
C1449      C1454   1.405       .  A
C1449      F1456   1.358       .  S
C1450      C1451   1.408       .  A
C1451      C1452   1.401       .  A
C1451      F1458   1.358   1_545  S
C1452      C1453   1.409       .  A
C1452      F1457   1.356       .  S
C1453      C1454   1.413       .  A
C1454      F1455   1.358       .  S
C1459      C1460   1.403       .  A
C1459      C1464   1.403       .  A
C1459      F1466   1.358   1_554  S
C1460      C1461   1.414       .  A
C1461      C1462   1.398   1_565  A
C1461      F1468   1.358   1_565  S
C1462      C1463   1.399       .  A
C1462      F1467   1.358       .  S
C1463      C1464   1.411   1_545  A
C1464      F1465   1.358       .  S
C1469      C1470   1.409       .  A
C1469      C1474   1.406       .  A
C1469      F1476   1.357       .  S
C1470      C1471   1.403       .  A
C1471      C1472   1.395       .  A
C1471      F1478   1.359   1_554  S
C1472      C1473   1.410       .  A
C1472      F1477   1.359       .  S
C1473      C1474   1.405       .  A
C1474      F1475   1.357       .  S
C1479      C1480   1.401       .  A
C1479      C1484   1.396   1_455  A
C1479      F1486   1.358       .  S
C1480      C1481   1.407   1_455  A
C1481      C1482   1.399       .  A
C1481      F1488   1.358       .  S
C1482      C1483   1.404       .  A
C1482      F1487   1.358   1_565  S
C1483      C1484   1.412       .  A
C1484      F1485   1.359       .  S
C1489      C1490   1.407       .  A
C1489      C1494   1.408       .  A
C1489      F1496   1.357       .  S
C1490      C1491   1.407       .  A
C1491      C1492   1.398       .  A
C1491      F1498   1.359       .  S
C1492      C1493   1.409   1_655  A
C1492      F1497   1.351   1_655  S
C1493      C1494   1.414   1_455  A
C1494      F1495   1.357       .  S
C1499      C1500   1.407       .  A
C1499      C1504   1.395       .  A
C1499      F1506   1.359       .  S
C1500      C1501   1.408       .  A
C1501      C1502   1.406       .  A
C1501      F1508   1.358       .  S
C1502      C1503   1.407       .  A
C1502      F1507   1.357       .  S
C1503      C1504   1.404       .  A
C1504      F1505   1.358       .  S
C1509      C1510   1.412       .  A
C1509      C1514   1.403   1_565  A
C1509      F1516   1.358       .  S
C1510      C1511   1.404       .  A
C1511      C1512   1.400   1_565  A
C1511      F1518   1.358       .  S
C1512      C1513   1.409       .  A
C1512      F1517   1.358       .  S
C1513      C1514   1.401       .  A
C1514      F1515   1.357       .  S
C1519      C1520   1.411       .  A
C1519      C1524   1.396       .  A
C1519      F1526   1.358       .  S
C1520      C1521   1.401       .  A
C1521      C1522   1.395       .  A
C1521      F1528   1.358       .  S
C1522      C1523   1.411       .  A
C1522      F1527   1.359       .  S
C1523      C1524   1.399       .  A
C1524      F1525   1.358       .  S
C1529      C1530   1.413       .  A
C1529      C1534   1.400       .  A
C1529      F1536   1.358       .  S
C1530      C1531   1.409       .  A
C1531      C1532   1.406       .  A
C1531      F1538   1.357       .  S
C1532      C1533   1.409   1_556  A
C1532      F1537   1.358       .  S
C1533      C1534   1.404   1_554  A
C1534      F1535   1.358   1_556  S
C1539      C1540   1.402       .  A
C1539      C1544   1.404       .  A
C1539      F1546   1.357       .  S
C1540      C1541   1.420       .  A
C1541      C1542   1.394       .  A
C1541      F1548   1.359       .  S
C1542      C1543   1.399       .  A
C1542      F1547   1.358       .  S
C1543      C1544   1.419       .  A
C1544      F1545   1.359       .  S
C1549      C1550   1.409       .  A
C1549      C1554   1.394       .  A
C1549      F1556   1.358       .  S
C1550      C1551   1.402       .  A
C1551      C1552   1.400       .  A
C1551      F1558   1.358       .  S
C1552      C1553   1.411       .  A
C1552      F1557   1.358   1_545  S
C1553      C1554   1.399       .  A
C1554      F1555   1.358       .  S
C1559      C1560   1.406       .  A
C1559      C1564   1.399       .  A
C1559      F1566   1.358       .  S
C1560      C1561   1.406       .  A
C1561      C1562   1.405       .  A
C1561      F1568   1.357       .  S
C1562      C1563   1.412       .  A
C1562      F1567   1.358       .  S
C1563      C1564   1.409       .  A
C1564      F1565   1.357       .  S
C1569      C1570   1.402       .  A
C1569      C1574   1.402       .  A
C1569      F1576   1.358       .  S
C1570      C1571   1.412       .  A
C1571      C1572   1.398       .  A
C1571      F1578   1.357       .  S
C1572      C1573   1.399       .  A
C1572      F1577   1.358   1_556  S
C1573      C1574   1.413       .  A
C1574      F1575   1.358       .  S
C1579      C1580   1.407       .  A
C1579      C1584   1.399   1_556  A
C1579      F1586   1.356       .  S
C1580      C1581   1.398       .  A
C1581      C1582   1.400       .  A
C1581      F1588   1.357       .  S
C1582      C1583   1.414   1_556  A
C1582      F1587   1.358       .  S
C1583      C1584   1.402       .  A
C1584      F1585   1.358       .  S
C1589      C1590   1.406       .  A
C1589      C1594   1.407       .  A
C1589      F1596   1.357       .  S
C1590      C1591   1.402       .  A
C1591      C1592   1.396       .  A
C1591      F1598   1.358       .  S
C1592      C1593   1.408       .  A
C1592      F1597   1.359       .  S
C1593      C1594   1.409       .  A
C1594      F1595   1.357       .  S
C1599      C1600   1.404       .  A
C1599      C1604   1.400       .  A
C1599      F1606   1.358       .  S
C1600      C1601   1.414       .  A
C1601      C1602   1.395       .  A
C1601      F1608   1.359       .  S
C1602      C1603   1.399       .  A
C1602      F1607   1.358       .  S
C1603      C1604   1.410       .  A
C1604      F1605   1.358       .  S
C1609      C1610   1.416       .  A
C1609      C1614   1.409       .  A
C1609      F1616   1.357       .  S
C1610      C1611   1.412       .  A
C1611      C1612   1.402       .  A
C1611      F1618   1.358       .  S
C1612      C1613   1.409       .  A
C1612      F1617   1.359       .  S
C1613      C1614   1.405       .  A
C1614      F1615   1.357       .  S
C1619      C1620   1.415       .  A
C1619      C1624   1.397       .  A
C1619      F1626   1.359       .  S
C1620      C1621   1.404       .  A
C1621      C1622   1.407       .  A
C1621      F1628   1.357   1_556  S
C1622      C1623   1.411       .  A
C1622      F1627   1.357       .  S
C1623      C1624   1.400       .  A
C1624      F1625   1.358       .  S
C1629      C1630   1.415   1_455  A
C1629      C1634   1.409   1_456  A
C1629      F1636   1.357       .  S
C1630      C1631   1.398       .  A
C1631      C1632   1.387       .  A
C1631      F1638   1.359       .  S
C1632      C1633   1.412   1_556  A
C1632      F1637   1.356       .  S
C1633      C1634   1.404       .  A
C1634      F1635   1.357   1_655  S
C1639      C1640   1.404       .  A
C1639      C1644   1.392       .  A
C1639      F1646   1.359   1_655  S
C1640      C1641   1.409       .  A
C1641      C1642   1.406       .  A
C1641      F1648   1.357       .  S
C1642      C1643   1.405       .  A
C1642      F1647   1.357       .  S
C1643      C1644   1.406       .  A
C1644      F1645   1.359       .  S
C1649      C1650   1.410       .  A
C1649      C1654   1.398       .  A
C1649      F1656   1.357       .  S
C1650      C1651   1.411       .  A
C1651      C1652   1.404   1_655  A
C1651      F1658   1.358       .  S
C1652      C1653   1.406       .  A
C1652      F1657   1.358       .  S
C1653      C1654   1.405   1_455  A
C1654      F1655   1.358   1_655  S
C1659      C1660   1.404       .  A
C1659      C1664   1.407       .  A
C1659      F1666   1.357       .  S
C1660      C1661   1.412       .  A
C1661      C1662   1.394       .  A
C1661      F1668   1.359   1_554  S
C1662      C1663   1.400       .  A
C1662      F1667   1.357   1_554  S
C1663      C1664   1.412       .  A
C1664      F1665   1.358       .  S
C1669      C1670   1.402       .  A
C1669      C1674   1.395       .  A
C1669      F1676   1.358   1_554  S
C1670      C1671   1.410       .  A
C1671      C1672   1.394       .  A
C1671      F1678   1.358       .  S
C1672      C1673   1.400       .  A
C1672      F1677   1.358       .  S
C1673      C1674   1.408       .  A
C1674      F1675   1.358   1_554  S
C1679      C1680   1.411       .  A
C1679      C1684   1.403       .  A
C1679      F1686   1.358       .  S
C1680      C1681   1.413       .  A
C1681      C1682   1.402       .  A
C1681      F1688   1.358       .  S
C1682      C1683   1.404       .  A
C1682      F1687   1.358       .  S
C1683      C1684   1.407       .  A
C1684      F1685   1.358       .  S
C1689      C1690   1.401       .  A
C1689      C1694   1.393       .  A
C1689      F1696   1.359       .  S
C1690      C1691   1.410       .  A
C1691      C1692   1.403       .  A
C1691      F1698   1.358       .  S
C1692      C1693   1.403       .  A
C1692      F1697   1.358       .  S
C1693      C1694   1.408       .  A
C1694      F1695   1.359       .  S
C1699      C1700   1.410       .  A
C1699      C1704   1.390       .  A
C1699      F1706   1.355       .  S
C1700      C1701   1.405       .  A
C1701      C1702   1.405       .  A
C1701      F1708   1.357       .  S
C1702      C1703   1.411       .  A
C1702      F1707   1.358   1_655  S
C1703      C1704   1.399       .  A
C1704      F1705   1.359       .  S
C1709      C1710   1.410       .  A
C1709      C1714   1.407       .  A
C1709      F1716   1.358       .  S
C1710      C1711   1.412       .  A
C1711      C1712   1.401       .  A
C1711      F1718   1.357       .  S
C1712      C1713   1.405   1_655  A
C1712      F1717   1.358   1_655  S
C1713      C1714   1.409   1_455  A
C1714      F1715   1.358   1_655  S
C1719      C1720   1.405       .  A
C1719      C1724   1.401       .  A
C1719      F1726   1.358       .  S
C1720      C1721   1.399       .  A
C1721      C1722   1.396       .  A
C1721      F1728   1.357       .  S
C1722      C1723   1.410       .  A
C1722      F1727   1.358       .  S
C1723      C1724   1.405       .  A
C1724      F1725   1.358       .  S
C1729      C1730   1.401       .  A
C1729      C1734   1.391       .  A
C1729      F1736   1.358       .  S
C1730      C1731   1.414       .  A
C1731      C1732   1.419       .  A
C1731      F1738   1.357       .  S
C1732      C1733   1.410       .  A
C1732      F1737   1.357       .  S
C1733      C1734   1.413       .  A
C1734      F1735   1.358       .  S
C1739      C1740   1.412       .  A
C1739      C1744   1.397       .  A
C1739      F1746   1.356       .  S
C1740      C1741   1.414       .  A
C1741      C1742   1.404       .  A
C1741      F1748   1.357       .  S
C1742      C1743   1.404       .  A
C1742      F1747   1.358       .  S
C1743      C1744   1.404       .  A
C1744      F1745   1.359       .  S
C1749      C1750   1.396       .  A
C1749      C1754   1.392       .  A
C1749      F1756   1.359       .  S
C1750      C1751   1.415       .  A
C1751      C1752   1.408       .  A
C1751      F1758   1.358       .  S
C1752      C1753   1.403       .  A
C1752      F1757   1.357       .  S
C1753      C1754   1.419       .  A
C1754      F1755   1.359       .  S
C1759      C1760   1.400       .  A
C1759      C1764   1.400       .  A
C1759      F1766   1.358       .  S
C1760      C1761   1.412       .  A
C1761      C1762   1.404       .  A
C1761      F1768   1.358       .  S
C1762      C1763   1.404       .  A
C1762      F1767   1.357       .  S
C1763      C1764   1.412       .  A
C1764      F1765   1.356       .  S
C1769      C1770   1.410       .  A
C1769      C1774   1.404       .  A
C1769      F1776   1.358       .  S
C1770      C1771   1.412       .  A
C1771      C1772   1.396       .  A
C1771      F1778   1.356       .  S
C1772      C1773   1.402       .  A
C1772      F1777   1.359       .  S
C1773      C1774   1.406       .  A
C1774      F1775   1.358       .  S
C1779      C1780   1.398       .  A
C1779      C1784   1.399       .  A
C1779      F1786   1.357       .  S
C1780      C1781   1.418       .  A
C1781      C1782   1.386       .  A
C1781      F1788   1.358       .  S
C1782      C1783   1.396       .  A
C1782      F1787   1.358       .  S
C1783      C1784   1.419       .  A
C1784      F1785   1.359       .  S
C1789      C1790   1.398       .  A
C1789      C1794   1.394       .  A
C1789      F1796   1.358       .  S
C1790      C1791   1.407       .  A
C1791      C1792   1.395       .  A
C1791      F1798   1.357       .  S
C1792      C1793   1.400       .  A
C1792      F1797   1.358       .  S
C1793      C1794   1.408       .  A
C1794      F1795   1.358       .  S
C1799      C1800   1.399       .  A
C1799      C1804   1.404       .  A
C1799      F1806   1.357       .  S
C1800      C1801   1.415       .  A
C1801      C1802   1.391       .  A
C1801      F1808   1.359       .  S
C1802      C1803   1.396       .  A
C1802      F1807   1.359       .  S
C1803      C1804   1.417       .  A
C1804      F1805   1.358       .  S
