geometry optimzed in LAMMPS
_audit_creation_date              2020-11-30 
_audit_creation_method            'lammps2cif' 
_symmetry_space_group_name_H-M    'P1' 
_symmetry_Int_Tables_number       1 
_symmetry_cell_setting            triclinic 
loop_ 
_symmetry_equiv_pos_as_xyz 
  x,y,z 
_cell_length_a                    45.18306117 
_cell_length_b                    45.351804017307614 
_cell_length_c                    45.29091748989929 
_cell_angle_alpha                 89.96189530009346 
_cell_angle_beta                  89.91639124493366 
_cell_angle_gamma                 90.19798425610584 
loop_ 
_atom_site_label 
_atom_site_type_symbol 
_atom_site_fract_x 
_atom_site_fract_y 
_atom_site_fract_z 
_atom_site_charge 
O1          O  0.60303363  0.68382125  0.65752213    -0.76800
C2          C  0.68289448  0.68467651  0.59779722     0.84300
O3          O  0.58366143  0.62408726  0.57055238    -0.77900
O4          O  0.67787001  0.58495454  0.58902689    -0.79400
O5          O  0.66775599  0.59959949  0.68799756    -0.79200
O6          O  0.61266735  0.65159436  0.69327445    -0.77800
Zn7        Zn  0.62215164  0.66670414  0.62075587     1.55700
O8          O  0.70034041  0.60798365  0.65222868    -0.79200
Cd9        Cd  0.62821324  0.61546763  0.67008317     1.59700
Cd10       Cd  0.60586671  0.59923574  0.60303317     1.59600
O11         O  0.59547628  0.58383184  0.67520347    -0.79200
O12         O  0.63218003  0.62578745  0.62748245    -1.89700
Cd13       Cd  0.67436550  0.62035134  0.61684190     1.59900
O14         O  0.57479990  0.57835625  0.63067573    -0.79100
O15         O  0.69192312  0.65806466  0.59801299    -0.77800
C16         C  0.58226659  0.65208311  0.56743389     0.84700
C17         C  0.60166234  0.67597808  0.68460356     0.84400
O18         O  0.65768236  0.69141072  0.60847328    -0.76800
C19         C  0.69420937  0.59858828  0.67801089     0.85200
O20         O  0.59494812  0.66958642  0.58549334    -0.76800
C21         C  0.57543251  0.57324198  0.65843522     0.85300
C22         C  0.66036502  0.56522569  0.57914776     0.85700
O23         O  0.63229896  0.56684699  0.58270277    -0.79300
O24         O  0.83735746  0.60014641  0.30616458    -0.76800
C25         C  0.90176146  0.67662568  0.31142010     0.84300
O26         O  0.92256008  0.57556737  0.36532416    -0.77900
O27         O  0.91323066  0.66349068  0.40972021    -0.79400
O28         O  0.81089792  0.66252774  0.39208923    -0.79200
O29         O  0.80144733  0.61263400  0.33713489    -0.77800
Zn30       Zn  0.87427232  0.61771007  0.32486965     1.55700
O31         O  0.84996689  0.69234303  0.38907599    -0.79200
Cd32       Cd  0.82563424  0.62336991  0.37431066     1.59700
Cd33       Cd  0.89003405  0.59569178  0.39149447     1.59600
O34         O  0.81702841  0.58854208  0.40219621    -0.79200
O35         O  0.86856430  0.62510886  0.36625115    -1.89700
Cd36       Cd  0.88362412  0.66503398  0.37524034     1.59900
O37         O  0.85975848  0.56481722  0.40830883    -0.79100
O38         O  0.90371450  0.68312312  0.33870960    -0.77800
C39         C  0.92670589  0.57724051  0.33743492     0.84700
C40         C  0.80993985  0.60090076  0.31305313     0.84400
O41         O  0.88757592  0.65392345  0.30272861    -0.76800
C42         C  0.82301107  0.68767310  0.39595478     0.85200
O43         O  0.90917706  0.59127379  0.32057573    -0.76800
C44         C  0.83167937  0.56645336  0.41156761     0.85300
C45         C  0.92005381  0.64399425  0.42878340     0.85700
O46         O  0.91131967  0.61724731  0.42668597    -0.79300
O47         O  0.91572281  0.43314769  0.15246741    -0.76800
C48         C  0.85280296  0.43608949  0.07791151     0.84300
O49         O  0.82548442  0.37255299  0.16936316    -0.77900
O50         O  0.84351219  0.33708272  0.07887033    -0.79400
O51         O  0.94237525  0.34600992  0.09105264    -0.79200
O52         O  0.95117948  0.40219908  0.13882253    -0.77800
Zn53       Zn  0.87783098  0.41571048  0.13705000     1.55700
O54         O  0.90910546  0.35914776  0.05738926    -0.79200
Cd55       Cd  0.92615789  0.36545829  0.12920040     1.59700
Cd56       Cd  0.85938692  0.34794757  0.14968205     1.59600
O57         O  0.93143625  0.34026864  0.16674653    -0.79200
O58         O  0.88381001  0.37556303  0.12488682    -1.89700
Cd59       Cd  0.87310059  0.37156264  0.08282581     1.59900
O60         O  0.88594073  0.33068669  0.18362648    -0.79100
O61         O  0.85476320  0.41034700  0.06667532    -0.77800
C62         C  0.82557589  0.39987567  0.17624342     0.84700
C63         C  0.94300840  0.42628330  0.15064635     0.84400
O64         O  0.86225076  0.44126893  0.10388876    -0.76800
C65         C  0.93362677  0.34713559  0.06425969     0.85200
O66         O  0.84602172  0.41739634  0.16785411    -0.76800
C67         C  0.91409251  0.33009134  0.18656458     0.85300
C68         C  0.83450603  0.31602752  0.09534509     0.85700
O69         O  0.84060242  0.31485072  0.12290574    -0.79300
C70         C  0.75000186  0.55942945  0.00277846     0.81900
N71         N  0.77371522  0.54643595  0.01631234    -0.76400
C72         C  0.77614324  0.51649660  0.01678399     0.84400
N73         N  0.75491676  0.49991548  0.00391247    -0.76300
C74         C  0.73114129  0.51206683  0.99063022     0.84500
N75         N  0.72876545  0.54205436  0.98994098    -0.78000
C76         C  0.06329108  0.50652978  0.25023655     0.81900
N77         N  0.04913144  0.49290843  0.22745461    -0.76400
C78         C  0.01923695  0.49463080  0.22488881     0.84400
N79         N  0.00356536  0.50922899  0.24572204    -0.76300
C80         C  0.01725261  0.52256483  0.26863998     0.84500
N81         N  0.04726056  0.52158588  0.27081726    -0.78000
O82         O  0.60255846  0.31342161  0.83724234    -0.76800
C83         C  0.68266643  0.30929587  0.89767805     0.84300
O84         O  0.58954420  0.37299893  0.92655905    -0.77900
O85         O  0.68129388  0.40693178  0.91288668    -0.79400
O86         O  0.66870375  0.39833201  0.80950267    -0.79200
O87         O  0.61390149  0.34567280  0.80197039    -0.77800
Zn88       Zn  0.62255344  0.32928432  0.87439983     1.55700
O89         O  0.70147333  0.38972505  0.84520078    -0.79200
Cd90       Cd  0.62955245  0.38078721  0.82674507     1.59700
Cd91       Cd  0.61081872  0.39750208  0.89417955     1.59600
O92         O  0.59437353  0.40940918  0.82308538    -0.79200
O93         O  0.63466419  0.36998827  0.86899642    -1.89700
Cd94       Cd  0.67662995  0.37480689  0.88055841     1.59900
O95         O  0.57841514  0.41788324  0.86901980    -0.79100
O96         O  0.69305221  0.33546577  0.89651798    -0.77800
C97         C  0.58398208  0.34544714  0.92745011     0.84700
C98         C  0.60125435  0.32192822  0.81036629     0.84400
O99         O  0.65681781  0.30335347  0.88793094    -0.76800
C100        C  0.69511635  0.39954636  0.81960111     0.85200
O101        O  0.59369421  0.32748929  0.90814247    -0.76800
C102        C  0.57562636  0.42020374  0.84111245     0.85300
C103        C  0.66457627  0.42762880  0.92202921     0.85700
O104        O  0.63734051  0.42911056  0.91481861    -0.79300
O105        O  0.43357380  0.14978063  0.90643101    -0.76800
C106        C  0.43462298  0.06594129  0.85118497     0.84300
O107        O  0.37630887  0.16852053  0.82066851    -0.77900
O108        O  0.33606638  0.07594399  0.82930458    -0.79400
O109        O  0.35166493  0.08316125  0.93557159    -0.79200
O110        O  0.40064149  0.14137161  0.94180247    -0.77800
Zn111      Zn  0.41691090  0.12789771  0.87039306     1.55700
O112        O  0.35120779  0.05207279  0.89758295    -0.79200
Cd113      Cd  0.36589968  0.12293694  0.91779798     1.59700
Cd114      Cd  0.34948491  0.14608825  0.85124812     1.59600
O115        O  0.33252698  0.15333158  0.92251315    -0.79200
O116        O  0.37531228  0.11862138  0.87517964    -1.89700
Cd117      Cd  0.36805935  0.07697095  0.86258150     1.59900
O118        O  0.32704856  0.17580828  0.87901249    -0.79100
O119        O  0.40766428  0.05759450  0.84879289    -0.77800
C120        C  0.40433217  0.16741248  0.81686541     0.84700
C121        C  0.42505729  0.15268638  0.93321488     0.84400
O122        O  0.44112263  0.09136931  0.86138088    -0.76800
C123        C  0.34612347  0.05774906  0.92472910     0.85200
O124        O  0.42116144  0.15305485  0.83419930    -0.76800
C125        C  0.32121126  0.17353360  0.90656095     0.85300
C126        C  0.31722632  0.09454601  0.81957599     0.85700
O127        O  0.31782175  0.12168873  0.82721660    -0.79300
C128        C  0.50506648  0.25479449  0.05565175     0.81900
N129        N  0.51962867  0.27630066  0.04030172    -0.76400
C130        C  0.51856134  0.27677512  0.01031754     0.84400
N131        N  0.50383044  0.25519178  0.99584808    -0.76300
C132        C  0.48975101  0.23320365  0.01043366     0.84500
N133        N  0.48993835  0.23329648  0.04060794    -0.78000
C134        C  0.49889864  0.24437108  0.68895602     0.81900
N135        N  0.47745527  0.22898805  0.70360792    -0.76400
C136        C  0.47620922  0.22963600  0.73357158     0.84400
N137        N  0.49705774  0.24472968  0.74889736    -0.76300
C138        C  0.51881232  0.25976149  0.73465310     0.84500
N139        N  0.51945082  0.25990776  0.70459652    -0.78000
C140        C  0.56470486  0.98630713  0.76306306     0.81900
N141        N  0.54936326  0.97424671  0.74009745    -0.76400
C142        C  0.51930327  0.97369341  0.74043929     0.84400
N143        N  0.50471530  0.98495911  0.76393504    -0.76300
C144        C  0.51937730  0.99702490  0.78699772     0.84500
N145        N  0.54954182  0.99800613  0.78642593    -0.78000
C146        C  0.93206079  0.99116047  0.25694189     0.81900
N147        N  0.94776479  0.97843087  0.27935351    -0.76400
C148        C  0.97793587  0.97985203  0.27947457     0.84400
N149        N  0.99202389  0.99311812  0.25665578    -0.76300
C150        C  0.97698059  0.00548793  0.23405784     0.84500
N151        N  0.94683951  0.00494871  0.23445563    -0.78000
C152        C  0.24115514  0.30241242  0.99728692     0.81900
N153        N  0.25549945  0.28507467  0.97706782    -0.76400
C154        C  0.25475022  0.25504677  0.97966831     0.84400
N155        N  0.24034747  0.24304216  0.00300025    -0.76300
C156        C  0.22618930  0.25969642  0.02318585     0.84500
N157        N  0.22615981  0.28949206  0.02012936    -0.78000
C158        C  0.25057832  0.93365960  0.00824789     0.81900
N159        N  0.27297146  0.94853467  0.99440674    -0.76400
C160        C  0.27151475  0.97838347  0.99133617     0.84400
N161        N  0.24764558  0.99298216  0.00200029    -0.76300
C162        C  0.22523610  0.97848127  0.01567195     0.84500
N163        N  0.22681968  0.94875766  0.01881760    -0.78000
C164        C  0.30143094  0.99805843  0.25254433     0.81900
N165        N  0.28917230  0.97843809  0.27198065    -0.76400
C166        C  0.25956494  0.97859209  0.27702053     0.84400
N167        N  0.24241287  0.99820313  0.26264582    -0.76300
C168        C  0.25378196  0.01762152  0.24296332     0.84500
N169        N  0.28355004  0.01751766  0.23797561    -0.78000
C170        C  0.99561418  0.24408858  0.93605287     0.81900
N171        N  0.98662500  0.26800958  0.95195604    -0.76400
C172        C  0.98690417  0.26740303  0.98196647     0.84400
N173        N  0.99565674  0.24257857  0.99596276    -0.76300
C174        C  0.00451209  0.21854148  0.98074987     0.84500
N175        N  0.00480289  0.21944682  0.95074050    -0.78000
C176        C  0.00653696  0.25255681  0.31549709     0.81900
N177        N  0.98525923  0.27022925  0.30358801    -0.76400
C178        C  0.98195503  0.27176481  0.27389339     0.84400
N179        N  0.00019785  0.25623154  0.25625999    -0.76300
C180        C  0.02176482  0.23875675  0.26724617     0.84500
N181        N  0.02475375  0.23667457  0.29724022    -0.78000
O182        O  0.08120243  0.05898233  0.15127698    -0.76800
C183        C  0.14524842  0.05774543  0.07439392     0.84300
O184        O  0.17181127  0.11613147  0.17134928    -0.77900
O185        O  0.15245419  0.15839359  0.07678195    -0.79400
O186        O  0.05442862  0.14279387  0.08842270    -0.79200
O187        O  0.04740058  0.09373432  0.14469305    -0.77800
Zn188      Zn  0.11911685  0.07564055  0.13382687     1.55700
O189        O  0.08899265  0.13223783  0.05517116    -0.79200
Cd190      Cd  0.07244530  0.12822143  0.12805244     1.59700
Cd191      Cd  0.14056182  0.14219064  0.14910203     1.59600
O192        O  0.06910311  0.16044962  0.16008148    -0.79200
O193        O  0.11459620  0.11663581  0.12333582    -1.89700
Cd194      Cd  0.12521687  0.12195988  0.08105212     1.59900
O195        O  0.11398234  0.16392281  0.18053395    -0.79100
O196        O  0.14498254  0.08419501  0.06474849    -0.77800
C197        C  0.17083144  0.08835202  0.17598429     0.84700
C198        C  0.05475185  0.06836133  0.15420249     0.84400
O199        O  0.13379321  0.05117191  0.09931928    -0.76800
C200        C  0.06344646  0.14210041  0.06169359     0.85200
O201        O  0.15113954  0.07205169  0.16415186    -0.76800
C202        C  0.08640677  0.17023421  0.18007877     0.85300
C203        C  0.16416140  0.17670190  0.09467878     0.85700
O204        O  0.16211302  0.17383748  0.12270820    -0.79300
O205        O  0.43951535  0.84482895  0.59296440    -0.76800
C206        C  0.43932936  0.91958579  0.65750643     0.84300
O207        O  0.37333816  0.82803590  0.68001356    -0.77900
O208        O  0.33969603  0.91937854  0.66540451    -0.79400
O209        O  0.35322391  0.90804068  0.56482938    -0.79200
O210        O  0.41007116  0.85897725  0.55657121    -0.77800
Zn211      Zn  0.42008497  0.86094895  0.63028210     1.55700
O212        O  0.36248521  0.94070015  0.60042831    -0.79200
Cd213      Cd  0.37239882  0.86968811  0.58066845     1.59700
Cd214      Cd  0.35040389  0.84947154  0.64649923     1.59600
O215        O  0.34594116  0.83309403  0.57447469    -0.79200
O216        O  0.37992864  0.87360467  0.62355986    -1.89700
Cd217      Cd  0.37488440  0.91510989  0.63600733     1.59900
O218        O  0.33299440  0.81676989  0.61918198    -0.79100
O219        O  0.41354613  0.93073468  0.65501349    -0.77800
C220        C  0.40062666  0.82089394  0.68076865     0.84700
C221        C  0.43366288  0.84645316  0.56542984     0.84400
O222        O  0.44499305  0.89393725  0.64750650    -0.76800
C223        C  0.35218146  0.93429344  0.57502066     0.85200
O224        O  0.41936228  0.82996015  0.66174017    -0.76800
C225        C  0.33366757  0.81392421  0.59114368     0.85300
C226        C  0.31764312  0.90305140  0.67223226     0.85700
O227        O  0.31648605  0.87588697  0.66471770    -0.79300
O228        O  0.08463965  0.93068923  0.36289117    -0.76800
C229        C  0.14185401  0.92954574  0.44494199     0.84300
O230        O  0.17938715  0.88001836  0.34632004    -0.77900
O231        O  0.16060913  0.83235778  0.43476289    -0.79400
O232        O  0.05863407  0.84064775  0.41961963    -0.79200
O233        O  0.05209420  0.89414861  0.36706195    -0.77800
Zn234      Zn  0.12216362  0.91492466  0.38242192     1.55700
O235        O  0.09215130  0.84690255  0.45487969    -0.79200
Cd236      Cd  0.07810798  0.86001225  0.38267498     1.59700
Cd237      Cd  0.14782245  0.85125592  0.36404841     1.59600
O238        O  0.07908972  0.83011570  0.34873168    -0.79200
O239        O  0.11926683  0.87313965  0.39023814    -1.89700
Cd240      Cd  0.12824133  0.86439649  0.43226179     1.59900
O241        O  0.12493322  0.83080388  0.32996579    -0.79100
O242        O  0.14257677  0.90250406  0.45268972    -0.77800
C243        C  0.17893583  0.90812497  0.34513096     0.84700
C244        C  0.05866572  0.92021783  0.35876199     0.84400
O245        O  0.13188025  0.93727914  0.41977387    -0.76800
C246        C  0.06691575  0.83756405  0.44638367     0.85200
O247        O  0.15767733  0.92268635  0.35649129    -0.76800
C248        C  0.09792668  0.82260846  0.32917328     0.85300
C249        C  0.17322869  0.81566769  0.41596495     0.85700
O250        O  0.16969075  0.81874138  0.38819026    -0.79300
C251        C  0.98345145  0.73447141  0.56443119     0.81900
N252        N  0.97414000  0.71098889  0.54782758    -0.76400
C253        C  0.97745080  0.71143943  0.51787392     0.84400
N254        N  0.98974446  0.73546715  0.50497359    -0.76300
C255        C  0.99918402  0.75882401  0.52089793     0.84500
N256        N  0.99616122  0.75826916  0.55078790    -0.78000
C257        C  0.24492275  0.05588662  0.50774845     0.81900
N258        N  0.22060629  0.03986125  0.49994113    -0.76400
C259        C  0.22083075  0.00994550  0.50178286     0.84400
N260        N  0.24574036  0.99620779  0.51104333    -0.76300
C261        C  0.27005994  0.01180764  0.51895441     0.84500
N262        N  0.26957257  0.04170311  0.51748838    -0.78000
C263        C  0.25452857  0.68483807  0.50012233     0.81900
N264        N  0.27020571  0.69808745  0.52215932    -0.76400
C265        C  0.27185954  0.72792943  0.52343267     0.84400
N266        N  0.25798808  0.74432031  0.50279152    -0.76300
C267        C  0.24224787  0.73165911  0.48074396     0.84500
N268        N  0.24060244  0.70166998  0.47935759    -0.78000
C269        C  0.01013318  0.75281031  0.19536922     0.81900
N270        N  0.98555948  0.74097051  0.20829181    -0.76400
C271        C  0.98335013  0.73983827  0.23814541     0.84400
N272        N  0.00574946  0.75027328  0.25483409    -0.76300
C273        C  0.03055327  0.76168100  0.24252547     0.84500
N274        N  0.03271505  0.76309905  0.21257002    -0.78000
C275        C  0.18817808  0.00352653  0.74125732     0.81900
N276        N  0.20403390  0.02690668  0.75225596    -0.76400
C277        C  0.23421550  0.02690993  0.75135352     0.84400
N278        N  0.24813969  0.00325474  0.73977615    -0.76300
C279        C  0.23333050  0.97962092  0.72905139     0.84500
N280        N  0.20305398  0.97976879  0.72968807    -0.78000
C281        C  0.75698384  0.18731485  0.00154509     0.81900
N282        N  0.77088532  0.20359312  0.02294669    -0.76400
C283        C  0.77132427  0.23365170  0.02117751     0.84400
N284        N  0.75859390  0.24679866  0.99756125    -0.76300
C285        C  0.74487108  0.23116895  0.97617780     0.84500
N286        N  0.74373404  0.20133357  0.97840214    -0.78000
C287        C  0.49730492  0.74897695  0.80645860     0.81900
N288        N  0.47426822  0.76094470  0.79135893    -0.76400
C289        C  0.47428613  0.76081131  0.76139651     0.84400
N290        N  0.49777926  0.74952068  0.74670425    -0.76300
C291        C  0.52114369  0.73799772  0.76135931     0.84500
N292        N  0.52062793  0.73729343  0.79139027    -0.78000
C293        C  0.50293722  0.74475396  0.43917666     0.81900
N294        N  0.51574372  0.72142602  0.45333349    -0.76400
C295        C  0.51799229  0.72130410  0.48333134     0.84400
N296        N  0.50775759  0.74459385  0.49892379    -0.76300
C297        C  0.49515449  0.76811930  0.48542178     0.84500
N298        N  0.49282570  0.76809181  0.45537441    -0.78000
C299        C  0.75445167  0.81228126  0.49846704     0.81900
N300        N  0.76533442  0.79758930  0.47465693    -0.76400
C301        C  0.76511055  0.76773336  0.47409357     0.84400
N302        N  0.75427839  0.75264294  0.49747936    -0.76300
C303        C  0.74366571  0.76672827  0.52157928     0.84500
N304        N  0.74357075  0.79679314  0.52203383    -0.78000
C305        C  0.44552900  0.49875763  0.75246203     0.81900
N306        N  0.46229004  0.51209393  0.73107009    -0.76400
C307        C  0.49236648  0.50959993  0.73137547     0.84400
N308        N  0.50528368  0.49436858  0.75357763    -0.76300
C309        C  0.48902713  0.48125709  0.77493256     0.84500
N310        N  0.45908819  0.48307405  0.77424024    -0.78000
C311        C  0.82229133  0.49913876  0.74811072     0.81900
N312        N  0.80727046  0.47531960  0.75880093    -0.76400
C313        C  0.77713081  0.47466909  0.75806383     0.84400
N314        N  0.76232290  0.49805151  0.74699537    -0.76300
C315        C  0.77678600  0.52201935  0.73654431     0.84500
N316        N  0.80698269  0.52255397  0.73696129    -0.78000
C317        C  0.74170466  0.43541449  0.49098377     0.81900
N318        N  0.76168409  0.45087332  0.47437019    -0.76400
C319        C  0.76174434  0.48088358  0.47511407     0.84400
N320        N  0.74228436  0.49519216  0.49271385    -0.76300
C321        C  0.72259541  0.48010270  0.50946336     0.84500
N322        N  0.72217746  0.45018613  0.50852572    -0.78000
C323        C  0.69070049  0.49177268  0.24269210     0.81900
N324        N  0.70397342  0.51698798  0.25278735    -0.76400
C325        C  0.73393371  0.52008547  0.25174608     0.84400
N326        N  0.75040898  0.49765618  0.24117533    -0.76300
C327        C  0.73799290  0.47235941  0.23139251     0.84500
N328        N  0.70795307  0.46946000  0.23192326    -0.78000
O329        O  0.11704059  0.34938267  0.69551509    -0.76800
C330        C  0.19332134  0.40375389  0.67766677     0.84300
O331        O  0.07953667  0.42306822  0.62740676    -0.77900
O332        O  0.18236892  0.40858736  0.58678649    -0.79400
O333        O  0.15454380  0.30551070  0.60897595    -0.79200
O334        O  0.10471604  0.31518282  0.66263085    -0.77800
Zn335      Zn  0.12899103  0.38416032  0.66993666     1.55700
O336        O  0.19227955  0.33660094  0.60334000    -0.79200
Cd337      Cd  0.12052605  0.33206076  0.62357096     1.59700
Cd338      Cd  0.11008306  0.39965209  0.60223345     1.59600
O339        O  0.08851013  0.32933323  0.59122004    -0.79200
O340        O  0.13379044  0.37340446  0.62894810    -1.89700
Cd341      Cd  0.17633385  0.37644508  0.61851206     1.59900
O342        O  0.08728080  0.37420782  0.57079095    -0.79100
O343        O  0.20124099  0.39152442  0.65362565    -0.77800
C344        C  0.07702815  0.42486186  0.65541261     0.84700
C345        C  0.10600173  0.32426308  0.68921409     0.84400
O346        O  0.16629904  0.40340306  0.68596337    -0.76800
C347        C  0.18105625  0.31086299  0.60098979     0.85200
O348        O  0.09471836  0.41186742  0.67295362    -0.76800
C349        C  0.07979806  0.34699946  0.57117570     0.85300
C350        C  0.16584281  0.42870257  0.57623581     0.85700
O351        O  0.13803231  0.42958806  0.58105189    -0.79300
O352        O  0.58529138  0.12574771  0.43889616    -0.76800
C353        C  0.64424525  0.05591483  0.42119628     0.84300
O354        O  0.65724351  0.17462084  0.37871645    -0.77900
O355        O  0.65407980  0.07242837  0.33195033    -0.79400
O356        O  0.54712166  0.09009277  0.35313866    -0.79200
O357        O  0.55288055  0.14271907  0.40618852    -0.77800
Zn358      Zn  0.62183535  0.11854678  0.41520537     1.55700
O359        O  0.58172917  0.05682783  0.34307509    -0.79200
Cd360      Cd  0.57146101  0.12607042  0.36742390     1.59700
Cd361      Cd  0.64046949  0.14204969  0.35085148     1.59600
O362        O  0.56946314  0.15475260  0.33189894    -0.79200
O363        O  0.61345076  0.11548234  0.37398377    -1.89700
Cd364      Cd  0.61959446  0.07430608  0.36153317     1.59900
O365        O  0.61619090  0.16231329  0.31718077    -0.79100
O366        O  0.63370768  0.04852490  0.39620833    -0.77800
C367        C  0.65719780  0.17559210  0.40688801     0.84700
C368        C  0.56109618  0.13867287  0.43289075     0.84400
O369        O  0.64240261  0.08234263  0.43059887    -0.76800
C370        C  0.55491040  0.06542792  0.34216738     0.85200
O371        O  0.64588753  0.15494350  0.42232916    -0.76800
C372        C  0.58829511  0.16540010  0.31368669     0.85300
C373        C  0.67506730  0.08997995  0.32507392     0.85700
O374        O  0.67501688  0.11718617  0.33242913    -0.79300
C375        C  0.49913542  0.24012380  0.56077587     0.81900
N376        N  0.48914942  0.26363821  0.54478556    -0.76400
C377        C  0.48745021  0.26193072  0.51479999     0.84400
N378        N  0.49517270  0.23659055  0.50114768    -0.76300
C379        C  0.50496999  0.21310903  0.51656961     0.84500
N380        N  0.50729720  0.21499638  0.54640097    -0.78000
O381        O  0.39819327  0.34870466  0.30941669    -0.76800
C382        C  0.31602838  0.39819299  0.32769013     0.84300
O383        O  0.43628830  0.41172034  0.37682694    -0.77900
O384        O  0.33255970  0.40887049  0.41658473    -0.79400
O385        O  0.34995405  0.30065966  0.39161282    -0.79200
O386        O  0.40470420  0.31010389  0.33898892    -0.77800
Zn387      Zn  0.38140506  0.38118989  0.33525353     1.55700
O388        O  0.31712614  0.33486214  0.40467329    -0.79200
Cd389      Cd  0.38674701  0.32529750  0.37858482     1.59700
Cd390      Cd  0.40345209  0.39116998  0.40209508     1.59600
O391        O  0.41757337  0.31954407  0.41196923    -0.79200
O392        O  0.37668501  0.36787344  0.37543861    -1.89700
Cd393      Cd  0.33484488  0.37370021  0.38764772     1.59900
O394        O  0.42324309  0.36374784  0.43311159    -0.79100
O395        O  0.30890116  0.38780378  0.35284727    -0.77800
C396        C  0.43440010  0.42011965  0.35000259     0.84700
C397        C  0.40761701  0.32258459  0.31384134     0.84400
O398        O  0.34280265  0.39729379  0.31861647    -0.76800
C399        C  0.32520672  0.30791189  0.40314545     0.85200
O400        O  0.41281121  0.41256250  0.33354709    -0.76800
C401        C  0.42807087  0.33607147  0.43223052     0.85300
C402        C  0.35144518  0.42708733  0.42691871     0.85700
O403        O  0.37927340  0.42387976  0.42344642    -0.79300
C404        C  0.56214756  0.48193636  0.24554108     0.81900
N405        N  0.54679253  0.49264800  0.22190142    -0.76400
C406        C  0.51668368  0.49264863  0.22210837     0.84400
N407        N  0.50241969  0.48293041  0.24645385    -0.76300
C408        C  0.51697240  0.47288483  0.27045992     0.84500
N409        N  0.54716216  0.47198332  0.26990777    -0.78000
C410        C  0.49410034  0.74514389  0.93400883     0.81900
N411        N  0.50427809  0.76848779  0.95015181    -0.76400
C412        C  0.50439519  0.76716283  0.98016909     0.84400
N413        N  0.49461524  0.74233112  0.99360668    -0.76300
C414        C  0.48440922  0.71904528  0.97802279     0.84500
N415        N  0.48400233  0.72049776  0.94809517    -0.78000
O416        O  0.35998074  0.54533448  0.09004166    -0.76800
C417        C  0.43830169  0.55600172  0.14431917     0.84300
O418        O  0.32694895  0.60883229  0.16907040    -0.77900
O419        O  0.43127640  0.64654479  0.15763972    -0.79400
O420        O  0.40071659  0.63181195  0.05221962    -0.79200
O421        O  0.34618050  0.58162029  0.06032706    -0.77800
Zn422      Zn  0.37403925  0.56770733  0.12623049     1.55700
O423        O  0.43896954  0.63531210  0.08298616    -0.79200
Cd424      Cd  0.36624135  0.61820189  0.07887095     1.59700
Cd425      Cd  0.35859417  0.63498376  0.14804516     1.59600
O426        O  0.33676816  0.65300329  0.07974563    -0.79200
O427        O  0.38054710  0.60933690  0.11923363    -1.89700
Cd428      Cd  0.42352504  0.61799165  0.12252871     1.59900
O429        O  0.33688295  0.66951307  0.12619137    -0.79100
O430        O  0.44723262  0.58074062  0.13427203    -0.77800
C431        C  0.32285017  0.58095607  0.16845509     0.84700
C432        C  0.34683028  0.55426783  0.06684700     0.84400
O433        O  0.41095567  0.54880674  0.14329253    -0.76800
C434        C  0.42751340  0.63888702  0.05745547     0.85200
O435        O  0.33972274  0.56372473  0.15401320    -0.76800
C436        C  0.32900855  0.67176011  0.09922252     0.85300
C437        C  0.41553122  0.65659636  0.17879330     0.85700
O438        O  0.38745854  0.65313903  0.17923194    -0.79300
C439        C  0.25719283  0.55717394  0.49735315     0.81900
N440        N  0.28022735  0.54336822  0.48359976    -0.76400
C441        C  0.28272160  0.51352058  0.48508805     0.84400
N442        N  0.26182075  0.49761586  0.49939605    -0.76300
C443        C  0.23849891  0.51082240  0.51255251     0.84500
N444        N  0.23642270  0.54072381  0.51191007    -0.78000
O445        O  0.68097143  0.89577752  0.14255291    -0.76800
C446        C  0.66294339  0.81658620  0.08884957     0.84300
O447        O  0.61541998  0.93264827  0.06724752    -0.77900
O448        O  0.57113461  0.83030507  0.08294933    -0.79400
O449        O  0.59222695  0.85754113  0.18519096    -0.79200
O450        O  0.64701702  0.90767206  0.17614502    -0.77800
Zn451      Zn  0.65687947  0.88215481  0.10653661     1.55700
O452        O  0.58756661  0.81954411  0.15461408    -0.79200
Cd453      Cd  0.60793229  0.89134949  0.15799372     1.59700
Cd454      Cd  0.58975758  0.90074505  0.08861343     1.59600
O455        O  0.57411196  0.92212338  0.15795829    -0.79200
O456        O  0.61524499  0.87776138  0.11682490    -1.89700
Cd457      Cd  0.60320828  0.83572262  0.11462167     1.59900
O458        O  0.55600602  0.92194437  0.11197190    -0.79100
O459        O  0.63757507  0.81018387  0.09938022    -0.77800
C460        C  0.64347896  0.93408116  0.06430794     0.84700
C461        C  0.67402315  0.90646621  0.16775595     0.84400
O462        O  0.67305085  0.84301892  0.08970168    -0.76800
C463        C  0.58465583  0.83088229  0.18022831     0.85200
O464        O  0.66077195  0.91547292  0.07650673    -0.76800
C465        C  0.55461155  0.92964126  0.13905275     0.85300
C466        C  0.56297219  0.84548854  0.06074621     0.85700
O467        O  0.57047351  0.87246930  0.05750462    -0.79300
C468        C  0.74258221  0.68786845  0.99630124     0.81900
N469        N  0.72722625  0.70287296  0.01754155    -0.76400
C470        C  0.72702700  0.73292589  0.01751152     0.84400
N471        N  0.74126438  0.74769710  0.99579533    -0.76300
C472        C  0.75597177  0.73338199  0.97410678     0.84500
N473        N  0.75715959  0.70332061  0.97470579    -0.78000
O474        O  0.89104940  0.15335227  0.68677414    -0.76800
C475        C  0.80901226  0.10032312  0.67208660     0.84300
O476        O  0.92813884  0.08124262  0.62681278    -0.77900
O477        O  0.82670084  0.08916289  0.57977741    -0.79400
O478        O  0.84243851  0.19489831  0.60268147    -0.79200
O479        O  0.89933033  0.18843178  0.65351761    -0.77800
Zn480      Zn  0.87404615  0.11884040  0.66430088     1.55700
O481        O  0.80942042  0.15961681  0.59381391    -0.79200
Cd482      Cd  0.87931144  0.17059737  0.61617815     1.59700
Cd483      Cd  0.89709176  0.10185450  0.59906473     1.59600
O484        O  0.90926210  0.17349100  0.58194626    -0.79200
O485        O  0.87000889  0.12809858  0.62293572    -1.89700
Cd486      Cd  0.82828055  0.12181477  0.61089934     1.59900
O487        O  0.91993996  0.12738504  0.56797723    -0.79100
O488        O  0.80250589  0.10678903  0.64552797    -0.77800
C489        C  0.92626326  0.07686395  0.65462083     0.84700
C490        C  0.90193246  0.17835315  0.67971768     0.84400
O491        O  0.83519758  0.10429140  0.68197072    -0.76800
C492        C  0.81724622  0.18663830  0.59288836     0.85200
O493        O  0.90534757  0.08794618  0.66987897    -0.76800
C494        C  0.92262790  0.15529191  0.56520177     0.85300
C495        C  0.84455808  0.06980384  0.57001219     0.85700
O496        O  0.87204611  0.06978724  0.57665939    -0.79300
C497        C  0.69268925  0.99732949  0.75724664     0.81900
N498        N  0.71083917  0.97835795  0.77199944    -0.76400
C499        C  0.74073966  0.98213073  0.77121435     0.84400
N500        N  0.75194556  0.00541278  0.75618185    -0.76300
C501        C  0.73444064  0.02456094  0.74154173     0.84500
N502        N  0.70463563  0.02027749  0.74166722    -0.78000
O503        O  0.86163125  0.93874717  0.91314115    -0.76800
C504        C  0.93953418  0.92616928  0.85484102     0.84300
O505        O  0.82304912  0.87996688  0.83549552    -0.77900
O506        O  0.92356910  0.83194392  0.84333180    -0.79400
O507        O  0.90436544  0.85038785  0.94823632    -0.79200
O508        O  0.85172262  0.90389541  0.94614785    -0.77800
Zn509      Zn  0.87564940  0.91696729  0.87664764     1.55700
O510        O  0.94037836  0.84659107  0.91480972    -0.79200
Cd511      Cd  0.86828863  0.86641438  0.92524769     1.59700
Cd512      Cd  0.85274290  0.85164029  0.85642825     1.59600
O513        O  0.83679191  0.83301574  0.92690527    -0.79200
O514        O  0.87959513  0.87498253  0.88345580    -1.89700
Cd515      Cd  0.92182068  0.86374449  0.87632122     1.59900
O516        O  0.82852963  0.82006727  0.88004471    -0.79100
O517        O  0.94678784  0.89959954  0.86068547    -0.77800
C518        C  0.82395489  0.90803872  0.83369415     0.84700
C519        C  0.85133823  0.93091262  0.93818773     0.84400
O520        O  0.91339424  0.93533487  0.86022924    -0.76800
C521        C  0.93057786  0.84285962  0.94105091     0.85200
O522        O  0.84342122  0.92325009  0.84719073    -0.76800
C523        C  0.82440624  0.81655876  0.90770075     0.85300
C524        C  0.90513009  0.82232332  0.82426759     0.85700
O525        O  0.87777045  0.82926663  0.82476449    -0.79300
O526        O  0.11033927  0.65247435  0.80918234    -0.76800
C527        C  0.19415146  0.60783508  0.82044621     0.84300
O528        O  0.07459524  0.58819750  0.87275435    -0.77900
O529        O  0.17930422  0.58795248  0.90858243    -0.79400
O530        O  0.16380508  0.69821897  0.88722574    -0.79200
O531        O  0.10346951  0.69025465  0.83964879    -0.77800
Zn532      Zn  0.12888384  0.62011176  0.83252537     1.55700
O533        O  0.19283247  0.66232487  0.90402276    -0.79200
Cd534      Cd  0.12562573  0.67445570  0.87734711     1.59700
Cd535      Cd  0.10784030  0.60757551  0.89900031     1.59600
O536        O  0.10116392  0.67977987  0.91577183    -0.79200
O537        O  0.13436396  0.63177343  0.87273270    -1.89700
Cd538      Cd  0.17639034  0.62542704  0.88289634     1.59900
O539        O  0.09012544  0.63456938  0.93231369    -0.79100
O540        O  0.20211291  0.61641309  0.84601992    -0.77800
C541        C  0.07713160  0.57993515  0.84586652     0.84700
C542        C  0.10001886  0.67799606  0.81439838     0.84400
O543        O  0.16694524  0.60770904  0.81309079    -0.76800
C544        C  0.18637956  0.68962701  0.90179422     0.85200
O545        O  0.09906788  0.58761685  0.82991368    -0.76800
C546        C  0.09001629  0.66263566  0.93523658     0.85300
C547        C  0.16092052  0.56946867  0.91947424     0.85700
O548        O  0.13293556  0.57352674  0.91813869    -0.79300
C549        C  0.98602679  0.73749571  0.69264480     0.81900
N550        N  0.96548184  0.75173795  0.70957499    -0.76400
C551        C  0.96939161  0.75415579  0.73930719     0.84400
N552        N  0.99434710  0.74336125  0.75167167    -0.76300
C553        C  0.01514112  0.72958685  0.73529242     0.84500
N554        N  0.01075929  0.72615254  0.70573182    -0.78000
C555        C  0.95085728  0.50273002  0.74926021     0.81900
N556        N  0.96542962  0.48874062  0.72697179    -0.76400
C557        C  0.99532519  0.49041809  0.72495313     0.84400
N558        N  0.01077180  0.50514290  0.74581924    -0.76300
C559        C  0.99689719  0.51851346  0.76873590     0.84500
N560        N  0.96674861  0.51764465  0.77020466    -0.78000
C561        C  0.31747578  0.50694732  0.74934746     0.81900
N562        N  0.30193888  0.48356482  0.73845139    -0.76400
C563        C  0.27194266  0.48453581  0.73691366     0.84400
N564        N  0.25765064  0.50903784  0.74612307    -0.76300
C565        C  0.27266016  0.53270397  0.75670667     0.84500
N566        N  0.30272173  0.53152480  0.75845106    -0.78000
C567        C  0.75235801  0.93968880  0.49620923     0.81900
N568        N  0.72847182  0.95264653  0.48335788    -0.76400
C569        C  0.72542517  0.98235412  0.48402678     0.84400
N570        N  0.74668220  0.99902024  0.49677510    -0.76300
C571        C  0.77109253  0.98671556  0.50893273     0.84500
N572        N  0.77366884  0.95679750  0.50904091    -0.78000
C573        C  0.00858656  0.24942527  0.44387709     0.81900
N574        N  0.02042410  0.27225411  0.45962334    -0.76400
C575        C  0.01826109  0.27287873  0.48956547     0.84400
N576        N  0.00452080  0.25033983  0.50365556    -0.76300
C577        C  0.99289427  0.22723755  0.48857850     0.84500
N578        N  0.99475090  0.22691781  0.45854098    -0.78000
C579        C  0.00047081  0.24925852  0.80816211     0.81900
N580        N  0.02467519  0.26176836  0.79526788    -0.76400
C581        C  0.02743824  0.26174840  0.76539366     0.84400
N582        N  0.00574025  0.24962749  0.74863795    -0.76300
C583        C  0.98148079  0.23723560  0.76117199     0.84500
N584        N  0.97901460  0.23677541  0.79111541    -0.78000
C585        C  0.49733138  0.74542673  0.30998252     0.81900
N586        N  0.51649731  0.76289577  0.29425913    -0.76400
C587        C  0.51738832  0.76141995  0.26419566     0.84400
N588        N  0.49893136  0.74267134  0.24999633    -0.76300
C589        C  0.47945955  0.72559196  0.26494074     0.84500
N590        N  0.47875298  0.72677541  0.29500716    -0.78000
C591        C  0.80300702  0.98985528  0.25733704     0.81900
N592        N  0.78783492  0.01252606  0.27023405    -0.76400
C593        C  0.75773029  0.01330542  0.26904430     0.84400
N594        N  0.74308020  0.99126608  0.25514820    -0.76300
C595        C  0.75750571  0.96876751  0.24197491     0.84500
N596        N  0.78768798  0.96813770  0.24286495    -0.78000
C597        C  0.25380015  0.80631028  0.01465140     0.81900
N598        N  0.26603287  0.78989064  0.03689023    -0.76400
C599        C  0.26640125  0.75984081  0.03472713     0.84400
N600        N  0.25555994  0.74690296  0.01004448    -0.76300
C601        C  0.24387414  0.76284283  0.98776816     0.84500
N602        N  0.24267831  0.79256016  0.99032419    -0.78000
C603        C  0.73655719  0.30782431  0.49338246     0.81900
N604        N  0.71940832  0.29255738  0.47389112    -0.76400
C605        C  0.71650587  0.26288359  0.47655694     0.84400
N606        N  0.73037326  0.24865132  0.49878310    -0.76300
C607        C  0.74754522  0.26334217  0.51840158     0.84500
N608        N  0.75080986  0.29309665  0.51547655    -0.78000
C609        C  0.19109934  0.49839043  0.25263437     0.81900
N610        N  0.20651477  0.51892490  0.23684441    -0.76400
C611        C  0.23639956  0.51711958  0.23475560     0.84400
N612        N  0.25079599  0.49478093  0.24812854    -0.76300
C613        C  0.23596764  0.47396910  0.26372445     0.84500
N614        N  0.20592423  0.47581029  0.26604024    -0.78000
C615        C  0.24309089  0.43080966  0.99288249     0.81900
N616        N  0.26592644  0.44614741  0.00557850    -0.76400
C617        C  0.26621045  0.47622563  0.00499584     0.84400
N618        N  0.24360384  0.49045728  0.99177509    -0.76300
C619        C  0.22102821  0.47588767  0.97892261     0.84500
N620        N  0.22076806  0.44588558  0.97920064    -0.78000
C621        C  0.42910112  0.00117676  0.23752652     0.81900
N622        N  0.44274224  0.99083942  0.21270183    -0.76400
C623        C  0.47285171  0.99120987  0.21079391     0.84400
N624        N  0.48896325  0.00145835  0.23385677    -0.76300
C625        C  0.47571420  0.01134930  0.25879137     0.84500
N626        N  0.44574158  0.01124622  0.26044318    -0.78000
C627        C  0.50727703  0.25424125  0.18415086     0.81900
N628        N  0.52804870  0.23750209  0.19815800    -0.76400
C629        C  0.52727679  0.23442555  0.22804889     0.84400
N630        N  0.50557496  0.24769370  0.24378801    -0.76300
C631        C  0.48493236  0.26457181  0.23029767     0.84500
N632        N  0.48578735  0.26781532  0.20040694    -0.78000
C633        C  0.24473096  0.18310290  0.49881056     0.81900
N634        N  0.23341071  0.19883599  0.52179768    -0.76400
C635        C  0.23492576  0.22874103  0.52163735     0.84400
N636        N  0.24689180  0.24265588  0.49800412    -0.76300
C637        C  0.25809015  0.22744942  0.47491293     0.84500
N638        N  0.25756859  0.19746640  0.47555979    -0.78000
C639        C  0.01552255  0.75358332  0.06746446     0.81900
N640        N  0.03170333  0.73260958  0.05314827    -0.76400
C641        C  0.03225323  0.73184180  0.02313822     0.84400
N642        N  0.01716983  0.75230679  0.00751438    -0.76300
C643        C  0.00109681  0.77332425  0.02136447     0.84500
N644        N  0.00001615  0.77372047  0.05137657    -0.78000
C645        C  0.75154541  0.05906472  0.00542973     0.81900
N646        N  0.72579496  0.04507327  0.01306166    -0.76400
C647        C  0.72404323  0.01510386  0.01244715     0.84400
N648        N  0.74818827  0.99935574  0.00452839    -0.76300
C649        C  0.77399565  0.01269755  0.99710070     0.84500
N650        N  0.77555918  0.04270132  0.99737694    -0.78000
C651        C  0.05867803  0.00645896  0.75019151     0.81900
N652        N  0.04135140  0.01958976  0.72905951    -0.76400
C653        C  0.01123274  0.02000633  0.73216233     0.84400
N654        N  0.99922168  0.00802780  0.75675514    -0.76300
C655        C  0.01556854  0.99503311  0.77796022     0.84500
N656        N  0.04552259  0.99379740  0.77440330    -0.78000
C657        C  0.23142404  0.70294017  0.93130933     0.25300
C658        C  0.20434565  0.71146591  0.91855954    -0.22800
C659        C  0.19287142  0.73955275  0.92552635     0.20200
C660        C  0.20659221  0.75724623  0.94691519     0.25300
C661        C  0.23208647  0.74728175  0.96156095    -0.22700
C662        C  0.24502051  0.72056878  0.95260157     0.20200
F663        F  0.27053990  0.71098394  0.96512916    -0.12700
F664        F  0.24431954  0.67690968  0.92410361    -0.15100
F665        F  0.19362098  0.78302642  0.95482125    -0.15100
F666        F  0.16728031  0.74917063  0.91321561    -0.12700
C667        C  0.21273736  0.50586436  0.93461005     0.25300
C668        C  0.20092861  0.49356513  0.96049463    -0.22800
C669        C  0.17434471  0.50490676  0.97194369     0.20200
C670        C  0.16023540  0.52879773  0.95796805     0.25300
C671        C  0.17311109  0.54215337  0.93290529    -0.22700
C672        C  0.19913613  0.52986676  0.92103252     0.20200
F673        F  0.21208687  0.54169511  0.89664606    -0.12700
F674        F  0.23896723  0.49604094  0.92377832    -0.15100
F675        F  0.13533172  0.54020977  0.97018124    -0.15100
F676        F  0.16329853  0.49433072  0.99776390    -0.12700
C677        C  0.03469169  0.68531052  0.99402305     0.25300
C678        C  0.04928200  0.70957923  0.00677496    -0.22800
C679        C  0.07853877  0.71585159  0.99856722     0.20200
C680        C  0.09233163  0.69945185  0.97630349     0.25300
C681        C  0.07709169  0.67633850  0.96202471    -0.22700
C682        C  0.04866112  0.66851112  0.97204595     0.20200
F683        F  0.03354957  0.64615268  0.95897705    -0.12700
F684        F  0.00624714  0.67908507  0.00154494    -0.15100
F685        F  0.12031651  0.70675018  0.96802824    -0.15100
F686        F  0.09299637  0.73916543  0.01072109    -0.12700
C687        C  0.20719731  0.58125678  0.77359344     0.25300
C688        C  0.21650432  0.59539253  0.79970165    -0.22800
C689        C  0.24675090  0.59390834  0.80739255     0.20200
C690        C  0.26610473  0.57549973  0.79171411     0.25300
C691        C  0.25551295  0.55815159  0.76821662    -0.22700
C692        C  0.22642351  0.56283900  0.75814173     0.20200
F693        F  0.21597059  0.54845371  0.73399132    -0.12700
F694        F  0.17888799  0.58358191  0.76384705    -0.15100
F695        F  0.29455359  0.57310824  0.80097594    -0.15100
F696        F  0.25737289  0.60895526  0.83103845    -0.12700
C697        C  0.02521349  0.57165268  0.82781830     0.25300
C698        C  0.05432879  0.56142273  0.83162563    -0.22800
C699        C  0.06328922  0.53586384  0.81678497     0.20200
C700        C  0.04406051  0.52133491  0.79757714     0.25300
C701        C  0.01536024  0.53231306  0.79223971    -0.22700
C702        C  0.00581710  0.55721305  0.80822022     0.20200
F703        F  0.97858180  0.56877255  0.80339095    -0.12700
F704        F  0.01636936  0.59691341  0.84120283    -0.15100
F705        F  0.05398226  0.49674860  0.78366076    -0.15100
F706        F  0.09129767  0.52557341  0.82003412    -0.12700
C707        C  0.04906793  0.68808846  0.74821415     0.25300
C708        C  0.04148596  0.71790587  0.75068439    -0.22800
C709        C  0.05597682  0.73541831  0.77192967     0.20200
C710        C  0.07613759  0.72290112  0.79176263     0.25300
C711        C  0.08216067  0.69250543  0.79084727    -0.22700
C712        C  0.06908195  0.67543349  0.76811430     0.20200
F713        F  0.07394140  0.64595735  0.76626590    -0.12700
F714        F  0.03523374  0.67060224  0.72815901    -0.15100
F715        F  0.08914452  0.74043720  0.81230893    -0.15100
F716        F  0.04984845  0.76463353  0.77405962    -0.12700
C717        C  0.95202194  0.97380943  0.82852441     0.25300
C718        C  0.96130684  0.94640259  0.83992425    -0.22800
C719        C  0.99091939  0.93776899  0.83467960     0.20200
C720        C  0.00967689  0.95465798  0.81636844     0.25300
C721        C  0.99935870  0.98063242  0.80296347    -0.22700
C722        C  0.97081552  0.99071744  0.81063233     0.20200
F723        F  0.96044575  0.01667242  0.79985620    -0.12700
F724        F  0.92411922  0.98382586  0.83327969    -0.15100
F725        F  0.03724199  0.94452620  0.81030798    -0.15100
F726        F  0.00153105  0.91234067  0.84630442    -0.12700
C727        C  0.82031115  0.94483106  0.98249257     0.25300
C728        C  0.83669564  0.95345798  0.95737004    -0.22800
C729        C  0.83611990  0.98351443  0.94902760     0.20200
C730        C  0.81742817  0.00354344  0.96344883     0.25300
C731        C  0.79887413  0.99405645  0.98651815    -0.22700
C732        C  0.80169416  0.96487455  0.99684050     0.20200
F733        F  0.78552389  0.95533147  0.02031040    -0.12700
F734        F  0.82089701  0.91656901  0.99239035    -0.15100
F735        F  0.81592648  0.03166488  0.95329263    -0.15100
F736        F  0.85252926  0.99342475  0.92591486    -0.12700
C737        C  0.98003117  0.82367481  0.95825784     0.25300
C738        C  0.94962126  0.82822020  0.96356961    -0.22800
C739        C  0.93717959  0.81682252  0.98990758     0.20200
C740        C  0.95436933  0.80037678  0.00962612     0.25300
C741        C  0.98420222  0.79461754  0.00336142    -0.22700
C742        C  0.99703253  0.80695703  0.97786953     0.20200
F743        F  0.02611050  0.80250079  0.97173913    -0.12700
F744        F  0.99335012  0.83486305  0.93378113    -0.15100
F745        F  0.94126643  0.78836735  0.03382792    -0.15100
F746        F  0.90794331  0.82011411  0.99598339    -0.12700
C747        C  0.92826895  0.77515024  0.80874537     0.25300
C748        C  0.91634535  0.80256268  0.80096808    -0.22800
C749        C  0.91831978  0.81216325  0.77149726     0.20200
C750        C  0.93392101  0.79546623  0.75051998     0.25300
C751        C  0.94763776  0.76893264  0.75883896    -0.22700
C752        C  0.94353219  0.75836221  0.78785913     0.20200
F753        F  0.95515819  0.73208878  0.79629609    -0.12700
F754        F  0.92586860  0.76503487  0.83688372    -0.15100
F755        F  0.93755327  0.80635951  0.72282780    -0.15100
F756        F  0.90701136  0.83869670  0.76357868    -0.12700
C757        C  0.77170528  0.91893824  0.81794534     0.25300
C758        C  0.80229485  0.92418527  0.81557104    -0.22800
C759        C  0.81239462  0.94743971  0.79785445     0.20200
C760        C  0.79251542  0.96569187  0.78325627     0.25300
C761        C  0.76158589  0.96143681  0.78619168    -0.22700
C762        C  0.75145940  0.93753315  0.80357254     0.20200
F763        F  0.72207146  0.93251889  0.80741076    -0.12700
F764        F  0.76138745  0.89681360  0.83539346    -0.15100
F765        F  0.80403881  0.98781832  0.76656426    -0.15100
F766        F  0.84186918  0.95269706  0.79479784    -0.12700
C767        C  0.92689037  0.18206039  0.72952659     0.25300
C768        C  0.91961712  0.19504200  0.70206217    -0.22800
C769        C  0.93182152  0.22292182  0.69526097     0.20200
C770        C  0.95123287  0.23690847  0.71488407     0.25300
C771        C  0.95873023  0.22363831  0.74194173    -0.22700
C772        C  0.94607053  0.19629448  0.74922460     0.20200
F773        F  0.95374035  0.18238371  0.77463110    -0.12700
F774        F  0.91665533  0.15486484  0.73695158    -0.15100
F775        F  0.96294361  0.26346807  0.70724355    -0.15100
F776        F  0.92571759  0.23648490  0.66924674    -0.12700
C777        C  0.98707659  0.19722284  0.53449328     0.25300
C778        C  0.97761704  0.20358946  0.50552429    -0.22800
C779        C  0.95171803  0.18982473  0.49487334     0.20200
C780        C  0.93443632  0.17209339  0.51373136     0.25300
C781        C  0.94310541  0.16767706  0.54318828    -0.22700
C782        C  0.96990246  0.17958944  0.55309304     0.20200
F783        F  0.97864005  0.17540465  0.58147051    -0.12700
F784        F  0.01249946  0.20902910  0.54531475    -0.15100
F785        F  0.90833851  0.16092739  0.50388464    -0.15100
F786        F  0.94193326  0.19530861  0.46709122    -0.12700
C787        C  0.95953643  0.02760101  0.71262546     0.25300
C788        C  0.99042632  0.03243167  0.70942792    -0.22800
C789        C  0.00008120  0.04951466  0.68512031     0.20200
C790        C  0.97937488  0.06260541  0.66580016     0.25300
C791        C  0.94871884  0.05909364  0.67060521    -0.22700
C792        C  0.93924616  0.04087591  0.69374906     0.20200
F793        F  0.90989893  0.03618835  0.69851076    -0.12700
F794        F  0.94832425  0.01022832  0.73438848    -0.15100
F795        F  0.98925752  0.08005007  0.64348029    -0.15100
F796        F  0.02936834  0.05445226  0.68055028    -0.12700
C797        C  0.76924837  0.19935298  0.56768351     0.25300
C798        C  0.79709167  0.20843138  0.57849502    -0.22800
C799        C  0.80626816  0.23773221  0.57293976     0.20200
C800        C  0.78942738  0.25637389  0.55479624     0.25300
C801        C  0.76300815  0.24619474  0.54183016    -0.22700
C802        C  0.75250390  0.21792807  0.54970320     0.20200
F803        F  0.72613540  0.20773943  0.53945446    -0.12700
F804        F  0.75837491  0.17201100  0.57357721    -0.15100
F805        F  0.79993038  0.28378064  0.54867884    -0.15100
F806        F  0.83220526  0.24811067  0.58394522    -0.12700
C807        C  0.83313815  0.01698089  0.55754975     0.25300
C808        C  0.83185854  0.04713298  0.55044541    -0.22800
C809        C  0.81345685  0.05639940  0.52740979     0.20200
C810        C  0.79503883  0.03642614  0.51301114     0.25300
C811        C  0.79420169  0.00648197  0.52157676    -0.22700
C812        C  0.81432002  0.99673338  0.54328963     0.20200
F813        F  0.81445581  0.96813094  0.55212975    -0.12700
F814        F  0.85080451  0.00752684  0.57982259    -0.15100
F815        F  0.77729395  0.04689193  0.49123562    -0.15100
F816        F  0.81231659  0.08533891  0.51972653    -0.12700
C817        C  0.75979223  0.07435188  0.67926599     0.25300
C818        C  0.78619715  0.08614526  0.69132200    -0.22800
C819        C  0.79195576  0.08144881  0.72150462     0.20200
C820        C  0.77358118  0.06315210  0.73830718     0.25300
C821        C  0.74885959  0.04920751  0.72553608    -0.22700
C822        C  0.74133421  0.05600796  0.69626457     0.20200
F823        F  0.71754075  0.04300737  0.68334952    -0.12700
F824        F  0.75267977  0.07890596  0.65050911    -0.15100
F825        F  0.78070379  0.05806686  0.76698445    -0.15100
F826        F  0.81609604  0.09354306  0.73466146    -0.12700
C827        C  0.75907657  0.77904022  0.94317128     0.25300
C828        C  0.77114840  0.75147355  0.95117579    -0.22800
C829        C  0.79926337  0.74384699  0.94020777     0.20200
C830        C  0.81597382  0.76446908  0.92397742     0.25300
C831        C  0.80475027  0.79281211  0.91840812    -0.22700
C832        C  0.77581791  0.79953537  0.92714642     0.20200
F833        F  0.76430120  0.82656248  0.92142413    -0.12700
F834        F  0.73138223  0.78669305  0.95193753    -0.15100
F835        F  0.84384394  0.75746487  0.91530863    -0.15100
F836        F  0.81152436  0.71746230  0.94713065    -0.12700
C837        C  0.53445170  0.97730045  0.15658618     0.25300
C838        C  0.52965839  0.94756278  0.14969654    -0.22800
C839        C  0.50310239  0.93389903  0.15857070     0.20200
C840        C  0.48273765  0.94916728  0.17628648     0.25300
C841        C  0.48892117  0.97815587  0.18550363    -0.22700
C842        C  0.51432892  0.99247027  0.17443758     0.20200
F843        F  0.52059541  0.02064645  0.18246271    -0.12700
F844        F  0.55967266  0.99102429  0.14764218    -0.15100
F845        F  0.45866120  0.93463310  0.18693492    -0.15100
F846        F  0.49813014  0.90504194  0.15224776    -0.12700
C847        C  0.72580118  0.92667055  0.17679265     0.25300
C848        C  0.69760982  0.91845087  0.18771105    -0.22800
C849        C  0.69153321  0.92338743  0.21786604     0.20200
C850        C  0.71211596  0.93775900  0.23596685     0.25300
C851        C  0.73953783  0.94738484  0.22466122    -0.22700
C852        C  0.74653265  0.94091940  0.19512381     0.20200
F853        F  0.77245161  0.95054209  0.18331039    -0.12700
F854        F  0.73274483  0.92264244  0.14791400    -0.15100
F855        F  0.70473585  0.94325320  0.26452224    -0.15100
F856        F  0.66527144  0.91497531  0.22988419    -0.12700
C857        C  0.67042003  0.95181110  0.01978846     0.25300
C858        C  0.65699524  0.95816561  0.04692981    -0.22800
C859        C  0.66095648  0.98628450  0.05946909     0.20200
C860        C  0.68078237  0.00655636  0.04664421     0.25300
C861        C  0.69691761  0.99873271  0.02124214    -0.22700
C862        C  0.69006065  0.97197599  0.00693272     0.20200
F863        F  0.70366917  0.96464850  0.98121869    -0.12700
F864        F  0.66574985  0.92535027  0.00656031    -0.15100
F865        F  0.68616854  0.03253772  0.06053694    -0.15100
F866        F  0.64750797  0.99316266  0.08537607    -0.12700
C867        C  0.55238788  0.76533962  0.22175823     0.25300
C868        C  0.53866862  0.77882969  0.24615590    -0.22800
C869        C  0.54281244  0.80923599  0.25053211     0.20200
C870        C  0.55884333  0.82610541  0.22984045     0.25300
C871        C  0.57111057  0.81280486  0.20437866    -0.22700
C872        C  0.56842108  0.78199846  0.20123200     0.20200
F873        F  0.58078453  0.76783260  0.17788743    -0.12700
F874        F  0.54973277  0.73581883  0.21738098    -0.15100
F875        F  0.56088572  0.85568525  0.23398799    -0.15100
F876        F  0.52966959  0.82298619  0.27368386    -0.12700
C877        C  0.68102410  0.74735317  0.04470429     0.25300
C878        C  0.71158771  0.75044081  0.04034588    -0.22800
C879        C  0.72657327  0.77392532  0.05419282     0.20200
C880        C  0.71108431  0.79480729  0.07092902     0.25300
C881        C  0.68016622  0.79273223  0.07409161    -0.22700
C882        C  0.66542552  0.76824051  0.06139295     0.20200
F883        F  0.63555661  0.76545527  0.06338844    -0.12700
F884        F  0.66588002  0.72547447  0.03085235    -0.15100
F885        F  0.72633268  0.81730826  0.08361440    -0.15100
F886        F  0.75627993  0.77709542  0.05076308    -0.12700
C887        C  0.29224434  0.57513367  0.21412057     0.25300
C888        C  0.29766198  0.56782513  0.18448832    -0.22800
C889        C  0.28002086  0.54621717  0.17069359     0.20200
C890        C  0.25802066  0.53141189  0.18664241     0.25300
C891        C  0.25367159  0.53769089  0.21663333    -0.22700
C892        C  0.27066136  0.55979466  0.23023479     0.20200
F893        F  0.26749110  0.56527613  0.25952721    -0.12700
F894        F  0.30934141  0.59549614  0.22800919    -0.15100
F895        F  0.24226901  0.50958163  0.17336939    -0.15100
F896        F  0.28461647  0.53892923  0.14196239    -0.12700
C897        C  0.29311792  0.52442631  0.00998885     0.25300
C898        C  0.29050688  0.49440884  0.01803672    -0.22800
C899        C  0.30986899  0.48333038  0.03966704     0.20200
C900        C  0.32953909  0.50233667  0.05449422     0.25300
C901        C  0.33019941  0.53285598  0.04803530    -0.22700
C902        C  0.31238949  0.54328282  0.02482078     0.20200
F903        F  0.31244613  0.57220199  0.01699285    -0.12700
F904        F  0.27645631  0.53615250  0.98799473    -0.15100
F905        F  0.34719252  0.49090565  0.07582188    -0.15100
F906        F  0.30898102  0.45443437  0.04744774    -0.12700
C907        C  0.31967907  0.72579757  0.09010009     0.25300
C908        C  0.30987831  0.69628184  0.08952781    -0.22800
C909        C  0.28313352  0.68949324  0.07549310     0.20200
C910        C  0.26750538  0.71119856  0.06036106     0.25300
C911        C  0.27882537  0.74015293  0.05791080    -0.22700
C912        C  0.30427847  0.74767142  0.07424753     0.20200
F913        F  0.31553993  0.77542775  0.07298969    -0.12700
F914        F  0.34537382  0.73293282  0.10388870    -0.15100
F915        F  0.24189395  0.70338861  0.04672188    -0.15100
F916        F  0.27282458  0.66132322  0.07523375    -0.12700
C917        C  0.47598205  0.68298878  0.23089926     0.25300
C918        C  0.46140087  0.70451562  0.24768717    -0.22800
C919        C  0.43100611  0.70911183  0.24312833     0.20200
C920        C  0.41570688  0.69309703  0.22128673     0.25300
C921        C  0.43067398  0.67230178  0.20354197    -0.22700
C922        C  0.46085539  0.66693183  0.20928700     0.20200
F923        F  0.47601880  0.64631317  0.19372588    -0.12700
F924        F  0.50539150  0.67826253  0.23475097    -0.15100
F925        F  0.38671028  0.69914945  0.21645025    -0.15100
F926        F  0.41660860  0.73043518  0.25842989    -0.12700
C927        C  0.50713426  0.79316091  0.02872848     0.25300
C928        C  0.51598145  0.79152105  0.99887763    -0.22800
C929        C  0.53786220  0.81128732  0.98860566     0.20200
C930        C  0.55195932  0.83072194  0.00832275     0.25300
C931        C  0.54448539  0.83045049  0.03849858    -0.22700
C932        C  0.52143001  0.81211937  0.04825078     0.20200
F933        F  0.51340980  0.81178527  0.07717030    -0.12700
F934        F  0.48520077  0.77563004  0.03950972    -0.15100
F935        F  0.57446961  0.84799861  0.99840493    -0.15100
F936        F  0.54710470  0.81041566  0.96008637    -0.12700
C937        C  0.44658124  0.67924612  0.98630048     0.25300
C938        C  0.47313270  0.69319129  0.99440943    -0.22800
C939        C  0.48692908  0.68506738  0.02097875     0.20200
C940        C  0.47327310  0.66536954  0.04034312     0.25300
C941        C  0.44508570  0.65370401  0.03387047    -0.22700
C942        C  0.43259950  0.65967564  0.00586429     0.20200
F943        F  0.40604464  0.64802134  0.99795571    -0.12700
F944        F  0.43284972  0.68644113  0.96065041    -0.15100
F945        F  0.48704127  0.65927481  0.06625575    -0.15100
F946        F  0.51316307  0.69738409  0.02896850    -0.12700
C947        C  0.50965488  0.52724229  0.17880673     0.25300
C948        C  0.49863795  0.50503325  0.19757576    -0.22800
C949        C  0.46857272  0.49687443  0.19505920     0.20200
C950        C  0.44948763  0.51220895  0.17640657     0.25300
C951        C  0.45982364  0.53616235  0.15944626    -0.22700
C952        C  0.49047043  0.54266448  0.15994876     0.20200
F953        F  0.50182633  0.56479219  0.14315599    -0.12700
F954        F  0.53856520  0.53540060  0.17997726    -0.15100
F955        F  0.42042234  0.50448222  0.17646710    -0.15100
F956        F  0.45708511  0.47460252  0.21160821    -0.12700
C957        C  0.32562024  0.47526134  0.42555845     0.25300
C958        C  0.34005744  0.45335766  0.44208435    -0.22800
C959        C  0.33977744  0.45487711  0.47297811     0.20200
C960        C  0.32314466  0.47666049  0.48719012     0.25300
C961        C  0.30692484  0.49733633  0.47065193    -0.22700
C962        C  0.30929678  0.49729547  0.43976668     0.20200
F963        F  0.29347826  0.51669079  0.42333425    -0.12700
F964        F  0.32586043  0.47415957  0.39559522    -0.15100
F965        F  0.32122143  0.47643291  0.51711654    -0.15100
F966        F  0.35361672  0.43394808  0.48930253    -0.12700
C967        C  0.48744867  0.42827628  0.33557218     0.25300
C968        C  0.45796163  0.43816792  0.33637903    -0.22800
C969        C  0.44988403  0.46251709  0.31922568     0.20200
C970        C  0.47009463  0.47532137  0.29977704     0.25300
C971        C  0.49884543  0.46354574  0.29637441    -0.22700
C972        C  0.50779786  0.44080590  0.31556035     0.20200
F973        F  0.53529237  0.42907274  0.31331841    -0.12700
F974        F  0.49574114  0.40472624  0.35207892    -0.15100
F975        F  0.46082542  0.49844865  0.28314433    -0.15100
F976        F  0.42172744  0.47292116  0.32010930    -0.12700
C977        C  0.31717416  0.25638459  0.42322265     0.25300
C978        C  0.30588698  0.28462922  0.41640842    -0.22800
C979        C  0.27656295  0.29117216  0.42475836     0.20200
C980        C  0.26016660  0.27130283  0.44185338     0.25300
C981        C  0.27248548  0.24431967  0.45084940    -0.22700
C982        C  0.30056152  0.23642040  0.44024346     0.20200
F983        F  0.31296540  0.21043751  0.44838211    -0.12700
F984        F  0.34503048  0.24866193  0.41515151    -0.15100
F985        F  0.23247948  0.27897153  0.45063831    -0.15100
F986        F  0.26393472  0.31726237  0.41730693    -0.12700
C987        C  0.24535356  0.43860917  0.30574254     0.25300
C988        C  0.25336342  0.45018334  0.27806588    -0.22800
C989        C  0.28034361  0.44123191  0.26529795     0.20200
C990        C  0.29989684  0.42308759  0.28070532     0.25300
C991        C  0.29305270  0.41320482  0.30940152    -0.22700
C992        C  0.26496716  0.42033302  0.32128769     0.20200
F993        F  0.25696124  0.41103632  0.34866727    -0.12700
F994        F  0.21946452  0.44653638  0.31870570    -0.15100
F995        F  0.32604243  0.41610486  0.26769892    -0.15100
F996        F  0.28831144  0.45071750  0.23795410    -0.12700
C997        C  0.43802232  0.32329807  0.26697420     0.25300
C998        C  0.42396013  0.30710710  0.28974578    -0.22800
C999        C  0.42803935  0.27632044  0.29063398     0.20200
C1000       C  0.44685817  0.26240440  0.27038944     0.25300
C1001       C  0.46179818  0.27880023  0.24856770    -0.22700
C1002       C  0.45664880  0.30923242  0.24657891     0.20200
F1003       F  0.47129218  0.32571836  0.22618934    -0.12700
F1004       F  0.43531113  0.35306735  0.26544445    -0.15100
F1005       F  0.45080950  0.23279450  0.27233845    -0.15100
F1006       F  0.41421567  0.25962824  0.31142160    -0.12700
C1007       C  0.45155441  0.30310019  0.50519760     0.25300
C1008       C  0.47613096  0.28632952  0.49631120    -0.22800
C1009       C  0.48709242  0.28970826  0.46732858     0.20200
C1010       C  0.47208745  0.30712574  0.44688042     0.25300
C1011       C  0.44639683  0.32221647  0.45517355    -0.22700
C1012       C  0.43680530  0.32104189  0.48470541     0.20200
F1013       F  0.41179629  0.33529686  0.49306294    -0.12700
F1014       F  0.44032080  0.30020282  0.53286381    -0.15100
F1015       F  0.48201841  0.30840591  0.41858480    -0.15100
F1016       F  0.51170719  0.27506795  0.45837812    -0.12700
C1017       C  0.54213324  0.02367188  0.30809184     0.25300
C1018       C  0.53278193  0.04750800  0.32570486    -0.22800
C1019       C  0.50285152  0.05621896  0.32420477     0.20200
C1020       C  0.48372414  0.04350231  0.30345156     0.25300
C1021       C  0.49411984  0.02184995  0.28378544    -0.22700
C1022       C  0.52310830  0.01116162  0.28732017     0.20200
F1023       F  0.53342658  0.98885837  0.27020905    -0.12700
F1024       F  0.57021810  0.01323598  0.30974057    -0.15100
F1025       F  0.45556659  0.05368099  0.30155268    -0.15100
F1026       F  0.49225284  0.07788925  0.34195072    -0.12700
C1027       C  0.69346146  0.06505343  0.28036313     0.25300
C1028       C  0.69971495  0.07739013  0.30796787    -0.22800
C1029       C  0.72731372  0.07187049  0.32120682     0.20200
C1030       C  0.74748185  0.05234192  0.30785551     0.25300
C1031       C  0.74012558  0.03821039  0.28112272    -0.22700
C1032       C  0.71346004  0.04593349  0.26695540     0.20200
F1033       F  0.70602756  0.03394701  0.24050312    -0.12700
F1034       F  0.66702088  0.07020977  0.26713159    -0.15100
F1035       F  0.77291061  0.04550384  0.32220054    -0.15100
F1036       F  0.73362946  0.08339578  0.34814235    -0.12700
C1037       C  0.70782769  0.23945691  0.42746344     0.25300
C1038       C  0.69809226  0.24550003  0.45627908    -0.22800
C1039       C  0.67336353  0.23054121  0.46755647     0.20200
C1040       C  0.65926745  0.20884198  0.45083950     0.25300
C1041       C  0.67005116  0.20125221  0.42261886    -0.22700
C1042       C  0.69383827  0.21749949  0.41064491     0.20200
F1043       F  0.70477968  0.21085737  0.38353326    -0.12700
F1044       F  0.73219541  0.25323493  0.41649842    -0.15100
F1045       F  0.63536107  0.19484896  0.46259073    -0.15100
F1046       F  0.66359736  0.23616840  0.49536093    -0.12700
C1047       C  0.55235773  0.16934685  0.27220393     0.25300
C1048       C  0.57673549  0.18117143  0.28752120    -0.22800
C1049       C  0.58793494  0.20890424  0.27905529     0.20200
C1050       C  0.57318729  0.22565410  0.25752666     0.25300
C1051       C  0.54757097  0.21454470  0.24381684    -0.22700
C1052       C  0.53793559  0.18589391  0.25054751     0.20200
F1053       F  0.51330711  0.17469978  0.23749447    -0.12700
F1054       F  0.54190262  0.14203510  0.27893315    -0.15100
F1055       F  0.58273529  0.25341613  0.25145205    -0.15100
F1056       F  0.61165957  0.22069357  0.29318463    -0.12700
C1057       C  0.51414213  0.16004978  0.45362666     0.25300
C1058       C  0.54372208  0.15136598  0.45764214    -0.22800
C1059       C  0.55785734  0.15824782  0.48463174     0.20200
C1060       C  0.54379968  0.17591882  0.50563025     0.25300
C1061       C  0.51559744  0.18729745  0.49994789    -0.22700
C1062       C  0.50025120  0.17796232  0.47457757     0.20200
F1063       F  0.47229663  0.18754163  0.46933746    -0.12700
F1064       F  0.49911247  0.15241212  0.42882737    -0.15100
F1065       F  0.55906135  0.18444869  0.52999694    -0.15100
F1066       F  0.58634602  0.15029336  0.48970743    -0.12700
C1067       C  0.69218083  0.99029933  0.44077527     0.25300
C1068       C  0.70021009  0.99719500  0.46987254    -0.22800
C1069       C  0.68662934  0.02111482  0.48410875     0.20200
C1070       C  0.66679181  0.03909712  0.46889537     0.25300
C1071       C  0.66050434  0.03375087  0.43892451    -0.22700
C1072       C  0.67257835  0.00846645  0.42534136     0.20200
F1073       F  0.66721547  0.00240184  0.39647944    -0.12700
F1074       F  0.70520458  0.96747118  0.42643890    -0.15100
F1075       F  0.65453174  0.06230410  0.48330634    -0.15100
F1076       F  0.69330756  0.02761973  0.51260320    -0.12700
C1077       C  0.18574949  0.47973424  0.57001979     0.25300
C1078       C  0.17996478  0.45166833  0.55815074    -0.22800
C1079       C  0.19125055  0.44432602  0.53033616     0.20200
C1080       C  0.20893001  0.46436225  0.51487051     0.25300
C1081       C  0.21597934  0.49205982  0.52716496    -0.22700
C1082       C  0.20362504  0.49989810  0.55457902     0.20200
F1083       F  0.21057342  0.52608396  0.56736659    -0.12700
F1084       F  0.17573611  0.48681707  0.59738277    -0.15100
F1085       F  0.21977130  0.45635528  0.48807355    -0.15100
F1086       F  0.18591081  0.41728840  0.51858664    -0.12700
C1087       C  0.08411007  0.27650214  0.70646826     0.25300
C1088       C  0.09232488  0.30583251  0.71272102    -0.22800
C1089       C  0.08363933  0.31819443  0.73999715     0.20200
C1090       C  0.06431142  0.30277867  0.75878431     0.25300
C1091       C  0.05331394  0.27499399  0.75045095    -0.22700
C1092       C  0.06466084  0.26138590  0.72502002     0.20200
F1093       F  0.05584352  0.23376408  0.71738534    -0.12700
F1094       F  0.09362008  0.26282877  0.68154475    -0.15100
F1095       F  0.05440314  0.31608827  0.78373744    -0.15100
F1096       F  0.09191539  0.34599296  0.74753566    -0.12700
C1097       C  0.03265341  0.32457246  0.55364136     0.25300
C1098       C  0.06140654  0.33451456  0.54736834    -0.22800
C1099       C  0.07439499  0.32724716  0.52013046     0.20200
C1100       C  0.05955623  0.30870284  0.50019590     0.25300
C1101       C  0.03156284  0.29699772  0.50737579    -0.22700
C1102       C  0.01779339  0.30607305  0.53380839     0.20200
F1103       F  0.99028692  0.29619103  0.54095194    -0.12700
F1104       F  0.01952148  0.33169390  0.57965497    -0.15100
F1105       F  0.07364873  0.30020246  0.47513538    -0.15100
F1106       F  0.10244759  0.33612618  0.51392652    -0.12700
C1107       C  0.22718518  0.45208410  0.73722604     0.25300
C1108       C  0.25449168  0.45988257  0.72445114    -0.22800
C1109       C  0.26322548  0.44618640  0.69808333     0.20200
C1110       C  0.24401443  0.42671895  0.68354942     0.25300
C1111       C  0.21571598  0.42026493  0.69536053    -0.22700
C1112       C  0.20813201  0.43231313  0.72303429     0.20200
F1113       F  0.18182776  0.42579774  0.73606889    -0.12700
F1114       F  0.21861437  0.46415023  0.76329611    -0.15100
F1115       F  0.25261223  0.41563814  0.65705910    -0.15100
F1116       F  0.28944077  0.45331798  0.68518515    -0.12700
C1117       C  0.22499208  0.29427193  0.57166715     0.25300
C1118       C  0.19844040  0.28719784  0.58639930    -0.22800
C1119       C  0.18708978  0.25823157  0.58374859     0.20200
C1120       C  0.20001582  0.23815588  0.56407174     0.25300
C1121       C  0.22443385  0.24674230  0.54678428    -0.22700
C1122       C  0.23774003  0.27432955  0.55211362     0.20200
F1123       F  0.26277488  0.28255347  0.53759939    -0.12700
F1124       F  0.23793110  0.32116829  0.57468806    -0.15100
F1125       F  0.18747674  0.21112817  0.56063352    -0.15100
F1126       F  0.16274365  0.24964224  0.59917114    -0.12700
C1127       C  0.03065436  0.48829148  0.68261873     0.25300
C1128       C  0.01173162  0.47367251  0.70254883    -0.22800
C1129       C  0.01237583  0.44281884  0.70437385     0.20200
C1130       C  0.03287655  0.42686985  0.68776188     0.25300
C1131       C  0.05252084  0.44149856  0.66860877    -0.22700
C1132       C  0.05066851  0.47221061  0.66533690     0.20200
F1133       F  0.06967189  0.48673823  0.64714361    -0.12700
F1134       F  0.03061419  0.51818169  0.68090640    -0.15100
F1135       F  0.03448370  0.39717366  0.69129069    -0.15100
F1136       F  0.99485644  0.42836100  0.72404175    -0.12700
C1137       C  0.63957772  0.51409643  0.24272277     0.25300
C1138       C  0.65767524  0.48879861  0.24352351    -0.22800
C1139       C  0.64374719  0.46087750  0.24525171     0.20200
C1140       C  0.61268892  0.45849163  0.24653155     0.25300
C1141       C  0.59492956  0.48385817  0.24553657    -0.22700
C1142       C  0.60866656  0.51157273  0.24346852     0.20200
F1143       F  0.59199704  0.53640665  0.24247769    -0.12700
F1144       F  0.65168419  0.54144119  0.24049300    -0.15100
F1145       F  0.59995453  0.43136609  0.24798209    -0.15100
F1146       F  0.66011526  0.43584233  0.24613367    -0.12700
C1147       C  0.71355782  0.38791186  0.48787128     0.25300
C1148       C  0.74085548  0.40274974  0.49002646    -0.22800
C1149       C  0.76698312  0.38608944  0.49226250     0.20200
C1150       C  0.76567857  0.35516801  0.49344204     0.25300
C1151       C  0.73832508  0.34039701  0.49145499    -0.22700
C1152       C  0.71234612  0.35706267  0.48813287     0.20200
F1153       F  0.68559000  0.34347970  0.48616549    -0.12700
F1154       F  0.68798710  0.40333133  0.48522041    -0.15100
F1155       F  0.79116055  0.33962838  0.49614855    -0.15100
F1156       F  0.79367263  0.39976325  0.49436241    -0.12700
C1157       C  0.87030273  0.52526855  0.75857852     0.25300
C1158       C  0.85518673  0.49981326  0.74913381    -0.22800
C1159       C  0.87173016  0.47490661  0.74088860     0.20200
C1160       C  0.90276406  0.47578119  0.74121853     0.25300
C1161       C  0.91796408  0.50135985  0.75048063    -0.22700
C1162       C  0.90134702  0.52592696  0.75960621     0.20200
F1163       F  0.91513486  0.55097528  0.76863008    -0.12700
F1164       F  0.85498270  0.54943070  0.76733949    -0.15100
F1165       F  0.91793849  0.45139879  0.73274000    -0.15100
F1166       F  0.85788741  0.44994944  0.73164721    -0.12700
C1167       C  0.39889922  0.52767733  0.74411195     0.25300
C1168       C  0.41274812  0.50111413  0.75215800    -0.22800
C1169       C  0.39495545  0.47692287  0.76049395     0.20200
C1170       C  0.36404188  0.47896722  0.75981111     0.25300
C1171       C  0.35020191  0.50538669  0.75131119    -0.22700
C1172       C  0.36794380  0.52990798  0.74405538     0.20200
F1173       F  0.35533581  0.55586843  0.73617204    -0.12700
F1174       F  0.41535125  0.55173869  0.73692422    -0.15100
F1175       F  0.34760312  0.45520811  0.76804922    -0.15100
F1176       F  0.40744333  0.45098430  0.76868342    -0.12700
C1177       C  0.74630077  0.86001204  0.47215852     0.25300
C1178       C  0.75417140  0.84488730  0.49812026    -0.22800
C1179       C  0.76264745  0.86118448  0.52312378     0.20200
C1180       C  0.76315902  0.89208318  0.52221252     0.25300
C1181       C  0.75450217  0.90716633  0.49649852    -0.22700
C1182       C  0.74620720  0.89082431  0.47144725     0.20200
F1183       F  0.73834469  0.90470737  0.44606907    -0.12700
F1184       F  0.73797263  0.84495074  0.44760636    -0.15100
F1185       F  0.77121847  0.90725662  0.54675737    -0.15100
F1186       F  0.77104337  0.84719117  0.54823878    -0.12700
C1187       C  0.50898062  0.77013325  0.35899926     0.25300
C1188       C  0.49785537  0.74560982  0.34322527    -0.22800
C1189       C  0.48806750  0.72090863  0.35968376     0.20200
C1190       C  0.48988666  0.72059151  0.39070598     0.25300
C1191       C  0.50082847  0.74514606  0.40626181    -0.22700
C1192       C  0.51007715  0.77000252  0.39004886     0.20200
F1193       F  0.52113064  0.79395817  0.40427950    -0.12700
F1194       F  0.51870706  0.79449871  0.34446163    -0.15100
F1195       F  0.48041846  0.69634184  0.40561891    -0.15100
F1196       F  0.47736573  0.69658481  0.34582644    -0.12700
C1197       C  0.48854527  0.77324574  0.85527734     0.25300
C1198       C  0.49658318  0.74810408  0.83902792    -0.22800
C1199       C  0.50332862  0.72191875  0.85411642     0.20200
C1200       C  0.50206169  0.72085132  0.88496536     0.25300
C1201       C  0.49467021  0.74617717  0.90133722    -0.22700
C1202       C  0.48796927  0.77240986  0.88618210     0.20200
F1203       F  0.48017244  0.79707049  0.90124929    -0.12700
F1204       F  0.48178108  0.79880334  0.84122465    -0.15100
F1205       F  0.50869516  0.69515895  0.89882911    -0.15100
F1206       F  0.51035878  0.69709798  0.83892772    -0.12700
C1207       C  0.78032288  0.13802131  0.01258300     0.25300
C1208       C  0.75569492  0.15454057  0.00331625    -0.22800
C1209       C  0.72987055  0.13937271  0.99467358     0.20200
C1210       C  0.72848008  0.10851619  0.99574493     0.25300
C1211       C  0.75308384  0.09191286  0.00490832    -0.22700
C1212       C  0.77914906  0.10703563  0.01305809     0.20200
F1213       F  0.80343292  0.09185953  0.02187691    -0.12700
F1214       F  0.80589957  0.15181572  0.02023938    -0.15100
F1215       F  0.70323500  0.09485122  0.98687236    -0.15100
F1216       F  0.70567705  0.15445886  0.98544791    -0.12700
C1217       C  0.13913415  0.03045827  0.73820714     0.25300
C1218       C  0.15488622  0.00395295  0.74253561    -0.22800
C1219       C  0.13845478  0.97819879  0.74890415     0.20200
C1220       C  0.10736389  0.97909647  0.75151792     0.25300
C1221       C  0.09169063  0.00551041  0.74684487    -0.22700
C1222       C  0.10797894  0.03109569  0.73979229     0.20200
F1223       F  0.09378065  0.05706025  0.73538803    -0.12700
F1224       F  0.15389369  0.05586655  0.73209597    -0.15100
F1225       F  0.09247444  0.95391911  0.75826084    -0.15100
F1226       F  0.15253044  0.95223128  0.75362420    -0.12700
C1227       C  0.98752489  0.76332800  0.14611857     0.25300
C1228       C  0.01208837  0.75428647  0.16280418    -0.22800
C1229       C  0.03806797  0.74579571  0.14807085     0.20200
C1230       C  0.03920408  0.74552757  0.11714033     0.25300
C1231       C  0.01453517  0.75433698  0.10030615    -0.22700
C1232       C  0.98881815  0.76368453  0.11522477     0.20200
F1233       F  0.96452356  0.77239024  0.09996448    -0.12700
F1234       F  0.96229036  0.77217373  0.15978174    -0.15100
F1235       F  0.06463553  0.73698438  0.10370069    -0.15100
F1236       F  0.06205602  0.73675925  0.16362416    -0.12700
C1237       C  0.24399723  0.63581321  0.52302756     0.25300
C1238       C  0.25349800  0.65230138  0.49852160    -0.22800
C1239       C  0.26348105  0.63744473  0.47320197     0.20200
C1240       C  0.26463022  0.60652620  0.47268181     0.25300
C1241       C  0.25518841  0.58990464  0.49729692    -0.22700
C1242       C  0.24441959  0.60494737  0.52230340     0.20200
F1243       F  0.23528534  0.58983070  0.54656148    -0.12700
F1244       F  0.23420822  0.64967155  0.54773060    -0.15100
F1245       F  0.27476118  0.59287594  0.44800176    -0.15100
F1246       F  0.27323033  0.65291988  0.44940384    -0.12700
C1247       C  0.27082783  0.10397757  0.49787401     0.25300
C1248       C  0.24472320  0.08847988  0.50513117    -0.22800
C1249       C  0.21841754  0.10445620  0.50963493     0.20200
C1250       C  0.21837279  0.13525253  0.50742524     0.25300
C1251       C  0.24442798  0.15058765  0.50000539    -0.22700
C1252       C  0.27055680  0.13469405  0.49498898     0.20200
F1253       F  0.29611575  0.14903161  0.48823172    -0.12700
F1254       F  0.29659991  0.08941244  0.49312425    -0.15100
F1255       F  0.19274455  0.15008716  0.51214871    -0.15100
F1256       F  0.19286993  0.09036963  0.51696797    -0.12700
C1257       C  0.97251376  0.75966107  0.61272857     0.25300
C1258       C  0.98079896  0.73404267  0.59725186    -0.22800
C1259       C  0.98818513  0.70867255  0.61355934     0.20200
C1260       C  0.98934234  0.70956886  0.64457279     0.25300
C1261       C  0.98230690  0.73560133  0.65998745    -0.22700
C1262       C  0.97290780  0.76031791  0.64372368     0.20200
F1263       F  0.96537111  0.78564564  0.65777576    -0.12700
F1264       F  0.96399262  0.78417226  0.59780057    -0.15100
F1265       F  0.99729953  0.68491265  0.65956348    -0.15100
F1266       F  0.99558705  0.68333821  0.59945675    -0.12700
C1267       C  0.19164297  0.96298600  0.50289119     0.25300
C1268       C  0.19521852  0.99187825  0.49203538    -0.22800
C1269       C  0.17605348  0.00182254  0.46972119     0.20200
C1270       C  0.15648206  0.98214579  0.45597658     0.25300
C1271       C  0.15563629  0.95216914  0.46441133    -0.22700
C1272       C  0.17202151  0.94340529  0.48936409     0.20200
F1273       F  0.17067800  0.91530826  0.49968216    -0.12700
F1274       F  0.20808600  0.95315282  0.52594572    -0.15100
F1275       F  0.13967579  0.99218915  0.43329279    -0.15100
F1276       F  0.17769396  0.02996665  0.45960422    -0.12700
C1277       C  0.04038458  0.79588870  0.51499407     0.25300
C1278       C  0.01370169  0.78355025  0.50493111    -0.22800
C1279       C  0.00302039  0.79190331  0.47698482     0.20200
C1280       C  0.01943867  0.81071232  0.45871590     0.25300
C1281       C  0.04733311  0.82146876  0.46772704    -0.22700
C1282       C  0.05711800  0.81454253  0.49658793     0.20200
F1283       F  0.08360574  0.82453206  0.50663517    -0.12700
F1284       F  0.05142819  0.78814956  0.54174881    -0.15100
F1285       F  0.00832069  0.81736265  0.43168893    -0.15100
F1286       F  0.97689795  0.78101392  0.46685020    -0.12700
C1287       C  0.07209143  0.79726596  0.25419212     0.25300
C1288       C  0.05373240  0.77345295  0.26248799    -0.22800
C1289       C  0.05482147  0.76317933  0.29189402     0.20200
C1290       C  0.07114765  0.77825433  0.31305617     0.25300
C1291       C  0.08729514  0.80346800  0.30534617    -0.22700
C1292       C  0.08886269  0.81220941  0.27560477     0.20200
F1293       F  0.10441991  0.83666858  0.26778156    -0.12700
F1294       F  0.07200163  0.80757750  0.22605214    -0.15100
F1295       F  0.06991557  0.76914241  0.34162305    -0.15100
F1296       F  0.03882580  0.73932882  0.30071463    -0.12700
C1297       C  0.20036399  0.74245873  0.44528031     0.25300
C1298       C  0.22680083  0.75119974  0.45934314    -0.22800
C1299       C  0.23700695  0.78041503  0.45525122     0.20200
C1300       C  0.22009016  0.80087243  0.43971163     0.25300
C1301       C  0.19299716  0.79259230  0.42730059    -0.22700
C1302       C  0.18358142  0.76308785  0.42934284     0.20200
F1303       F  0.15726602  0.75473314  0.41751741    -0.12700
F1304       F  0.18972987  0.71461523  0.44854536    -0.15100
F1305       F  0.22966127  0.82922628  0.43770074    -0.15100
F1306       F  0.26305972  0.78961398  0.46706446    -0.12700
C1307       C  0.30049724  0.93160501  0.71579392     0.25300
C1308       C  0.29334144  0.91678778  0.68961781    -0.22800
C1309       C  0.26423332  0.91908703  0.67861425     0.20200
C1310       C  0.24348186  0.93797360  0.69234841     0.25300
C1311       C  0.25152735  0.95452752  0.71748335    -0.22700
C1312       C  0.27988668  0.94981905  0.72973103     0.20200
F1313       F  0.28829603  0.96389917  0.75483088    -0.12700
F1314       F  0.32809736  0.92928329  0.72739209    -0.15100
F1315       F  0.21647725  0.94166144  0.67982581    -0.15100
F1316       F  0.25660824  0.90484089  0.65338399    -0.12700
C1317       C  0.32650661  0.95178738  0.52903127     0.25300
C1318       C  0.33655534  0.95752635  0.55792176    -0.22800
C1319       C  0.32818653  0.98428565  0.57156556     0.20200
C1320       C  0.30820021  0.00330619  0.55773943     0.25300
C1321       C  0.29601093  0.99585827  0.53028513    -0.22700
C1322       C  0.30613181  0.97058002  0.51556190     0.20200
F1323       F  0.29544528  0.96352548  0.48845229    -0.12700
F1324       F  0.33530700  0.92731206  0.51421141    -0.15100
F1325       F  0.29878681  0.02766362  0.57237633    -0.15100
F1326       F  0.33757978  0.99122746  0.59917540    -0.12700
C1327       C  0.44672448  0.83129971  0.51302237     0.25300
C1328       C  0.45346488  0.83150655  0.54351034    -0.22800
C1329       C  0.47755114  0.81440260  0.55321374     0.20200
C1330       C  0.49224318  0.79538515  0.53383815     0.25300
C1331       C  0.48333395  0.79270382  0.50407000    -0.22700
C1332       C  0.46151969  0.81218660  0.49355173     0.20200
F1333       F  0.45331586  0.81180902  0.46473626    -0.12700
F1334       F  0.42493723  0.84867994  0.50206335    -0.15100
F1335       F  0.51483876  0.77897277  0.54470109    -0.15100
F1336       F  0.48625986  0.81489382  0.58189368    -0.12700
C1337       C  0.42237819  0.77409001  0.69802481     0.25300
C1338       C  0.41192322  0.80235867  0.70465837    -0.22800
C1339       C  0.41830256  0.81501059  0.73221859     0.20200
C1340       C  0.43698816  0.80045057  0.75205810     0.25300
C1341       C  0.44954056  0.77320124  0.74429955    -0.22700
C1342       C  0.44091528  0.75949805  0.71778301     0.20200
F1343       F  0.45160094  0.73253599  0.71037232    -0.12700
F1344       F  0.41614092  0.76146251  0.67156444    -0.15100
F1345       F  0.44499177  0.81422826  0.77743954    -0.15100
F1346       F  0.40872637  0.84261026  0.73868788    -0.12700
C1347       C  0.29536899  0.77327138  0.58885540     0.25300
C1348       C  0.32043741  0.78755705  0.57694558    -0.22800
C1349       C  0.33222130  0.77734077  0.55001277     0.20200
C1350       C  0.31752540  0.75562026  0.53387659     0.25300
C1351       C  0.29112687  0.74328024  0.54450154    -0.22700
C1352       C  0.28065101  0.75136126  0.57254604     0.20200
F1353       F  0.25508363  0.73960209  0.58312992    -0.12700
F1354       F  0.28394939  0.78187111  0.61520322    -0.15100
F1355       F  0.32802959  0.74795387  0.50684228    -0.15100
F1356       F  0.35758965  0.78900406  0.53879074    -0.12700
C1357       C  0.01151684  0.22356171  0.39437713     0.25300
C1358       C  0.00977944  0.24985528  0.41094128    -0.22800
C1359       C  0.00864070  0.27688371  0.39564046     0.20200
C1360       C  0.00825268  0.27759190  0.36473477     0.25300
C1361       C  0.00966671  0.25138695  0.34818127    -0.22700
C1362       C  0.01185619  0.22437045  0.36330555     0.20200
F1363       F  0.01301852  0.19865786  0.34802858    -0.12700
F1364       F  0.01300396  0.19704363  0.40821413    -0.15100
F1365       F  0.00645092  0.30410720  0.35092008    -0.15100
F1366       F  0.00670158  0.30276463  0.41056734    -0.12700
C1367       C  0.05399246  0.21195622  0.19424890     0.25300
C1368       C  0.07334947  0.18958338  0.20301753    -0.22800
C1369       C  0.07751107  0.18442931  0.23340061     0.20200
C1370       C  0.06143571  0.20063431  0.25460375     0.25300
C1371       C  0.04114978  0.22255808  0.24573091    -0.22700
C1372       C  0.03853582  0.22848288  0.21508565     0.20200
F1373       F  0.02067926  0.25016562  0.20471711    -0.12700
F1374       F  0.04977184  0.21776306  0.16512313    -0.15100
F1375       F  0.06512539  0.19416774  0.28362167    -0.15100
F1376       F  0.09583938  0.16259773  0.24250700    -0.12700
C1377       C  0.98302234  0.26884575  0.88745377     0.25300
C1378       C  0.99608363  0.24513891  0.90301712    -0.22800
C1379       C  0.01003829  0.22265920  0.88649006     0.20200
C1380       C  0.01118109  0.22409195  0.85563881     0.25300
C1381       C  0.99839920  0.24776583  0.84054052    -0.22700
C1382       C  0.98426633  0.27008652  0.85654321     0.20200
F1383       F  0.97185129  0.29325381  0.84220931    -0.12700
F1384       F  0.96890873  0.29091494  0.90193927    -0.15100
F1385       F  0.02509131  0.20239474  0.84039575    -0.15100
F1386       F  0.02310817  0.19937625  0.89998669    -0.12700
C1387       C  0.01680643  0.16711746  0.04481448     0.25300
C1388       C  0.04477116  0.15525093  0.03795862    -0.22800
C1389       C  0.05614132  0.15966424  0.00915077     0.20200
C1390       C  0.04165159  0.17835681  0.98919955     0.25300
C1391       C  0.01558022  0.19288083  0.99761133    -0.22700
C1392       C  0.00253464  0.18584612  0.02495548     0.20200
F1393       F  0.97651712  0.19835959  0.03314473    -0.12700
F1394       F  0.00385546  0.16204332  0.07141797    -0.15100
F1395       F  0.05458114  0.18428335  0.96276434    -0.15100
F1396       F  0.08228686  0.14756700  0.00079223    -0.12700
C1397       C  0.34683091  0.00863443  0.22144153     0.25300
C1398       C  0.33414166  0.99881505  0.24821552    -0.22800
C1399       C  0.35315431  0.98992177  0.27119185     0.20200
C1400       C  0.38386660  0.99081559  0.26753918     0.25300
C1401       C  0.39647237  0.00009413  0.24069327    -0.22700
C1402       C  0.37769814  0.00899358  0.21764634     0.20200
F1403       F  0.38924822  0.01894623  0.19178784    -0.12700
F1404       F  0.32942339  0.01756307  0.19875066    -0.15100
F1405       F  0.40135573  0.98214682  0.29029334    -0.15100
F1406       F  0.34214574  0.98100212  0.29765236    -0.12700
C1407       C  0.24388480  0.92838163  0.29467035     0.25300
C1408       C  0.24513332  0.95906212  0.29876077    -0.22800
C1409       C  0.22729771  0.97204081  0.32045434     0.20200
C1410       C  0.20681307  0.95522723  0.33623614     0.25300
C1411       C  0.20349823  0.92479402  0.33062338    -0.22700
C1412       C  0.22323720  0.91127852  0.31055485     0.20200
F1413       F  0.22150847  0.88190865  0.30502302    -0.12700
F1414       F  0.26103279  0.91534766  0.27381924    -0.15100
F1415       F  0.18965346  0.96914393  0.35650323    -0.15100
F1416       F  0.22876707  0.00155474  0.32537499    -0.12700
C1417       C  0.24335448  0.06099385  0.20869725     0.25300
C1418       C  0.23311799  0.03802557  0.22723321    -0.22800
C1419       C  0.20216043  0.03426167  0.23050122     0.20200
C1420       C  0.18236943  0.05176167  0.21485943     0.25300
C1421       C  0.19253242  0.07374114  0.19556178    -0.22700
C1422       C  0.22318503  0.07881048  0.19314217     0.20200
F1423       F  0.23365887  0.09994590  0.17460659    -0.12700
F1424       F  0.27278303  0.06597553  0.20514187    -0.15100
F1425       F  0.15288359  0.04684463  0.21832334    -0.15100
F1426       F  0.19050135  0.01301825  0.24822741    -0.12700
C1427       C  0.27641025  0.88677882  0.02272229     0.25300
C1428       C  0.25138780  0.90118414  0.01128010    -0.22800
C1429       C  0.22659227  0.88432963  0.00311642     0.20200
C1430       C  0.22717715  0.85358564  0.00519908     0.25300
C1431       C  0.25239168  0.83896906  0.01604406    -0.22700
C1432       C  0.27678054  0.85590287  0.02543990     0.20200
F1433       F  0.30139500  0.84254351  0.03608424    -0.12700
F1434       F  0.30032911  0.90264131  0.03158004    -0.15100
F1435       F  0.20296962  0.83804096  0.99650331    -0.15100
F1436       F  0.20207622  0.89760575  0.99208446    -0.12700
C1437       C  0.19092797  0.02156984  0.01423136     0.25300
C1438       C  0.20038770  0.99560691  0.02828276    -0.22800
C1439       C  0.18795669  0.98799821  0.05572863     0.20200
C1440       C  0.16841060  0.00726485  0.06999468     0.25300
C1441       C  0.16093761  0.03461035  0.05705918    -0.22700
C1442       C  0.17136673  0.04077437  0.02834339     0.20200
F1443       F  0.16348349  0.06591176  0.01412357    -0.12700
F1444       F  0.20121211  0.02878685  0.98696520    -0.15100
F1445       F  0.15827896  0.99976324  0.09722848    -0.15100
F1446       F  0.19636496  0.96296202  0.06982428    -0.12700
C1447       C  0.26829415  0.35054314  0.98925611     0.25300
C1448       C  0.24172135  0.33518473  0.99481689    -0.22800
C1449       C  0.21569506  0.35152880  0.99945455     0.20200
C1450       C  0.21611944  0.38245444  0.99836016     0.25300
C1451       C  0.24274919  0.39790378  0.99340198    -0.22700
C1452       C  0.26888521  0.38157184  0.98896451     0.20200
F1453       F  0.29497874  0.39563303  0.98388124    -0.12700
F1454       F  0.29391937  0.33554265  0.98511569    -0.15100
F1455       F  0.19052959  0.39733514  0.00309229    -0.15100
F1456       F  0.18963440  0.33748849  0.00475759    -0.12700
C1457       C  0.22612324  0.22438710  0.06523842     0.25300
C1458       C  0.21046585  0.24434808  0.04732585    -0.22800
C1459       C  0.17941729  0.24425549  0.04820953     0.20200
C1460       C  0.16428237  0.22308601  0.06510102     0.25300
C1461       C  0.17998729  0.20220120  0.08185093    -0.22700
C1462       C  0.21098608  0.20363780  0.08260475     0.20200
F1463       F  0.22661450  0.18341463  0.09818927    -0.12700
F1464       F  0.25616280  0.22383662  0.06443737    -0.15100
F1465       F  0.13427478  0.22190484  0.06387919    -0.15100
F1466       F  0.16381221  0.26281098  0.03063799    -0.12700
C1467       C  0.88293537  0.01651395  0.25191216     0.25300
C1468       C  0.89907003  0.99057422  0.25722512    -0.22800
C1469       C  0.88337535  0.96423574  0.26268997     0.20200
C1470       C  0.85221011  0.96381479  0.26243072     0.25300
C1471       C  0.83606979  0.98991388  0.25754642    -0.22700
C1472       C  0.85186579  0.01629887  0.25258897     0.20200
F1473       F  0.83718841  0.04189793  0.24765652    -0.12700
F1474       F  0.89730256  0.04232864  0.24662920    -0.15100
F1475       F  0.83782707  0.93799093  0.26762494    -0.15100
F1476       F  0.89823780  0.93871416  0.26750508    -0.12700
C1477       C  0.00705500  0.92694652  0.33784896     0.25300
C1478       C  0.03606145  0.93792336  0.34243338    -0.22800
C1479       C  0.04394843  0.96481368  0.32889344     0.20200
C1480       C  0.02437066  0.97905115  0.30975792     0.25300
C1481       C  0.99622567  0.96697241  0.30356882    -0.22700
C1482       C  0.98739650  0.94134515  0.31868396     0.20200
F1483       F  0.96040390  0.92914770  0.31361182    -0.12700
F1484       F  0.99788253  0.90161534  0.35102169    -0.15100
F1485       F  0.03339382  0.00454071  0.29673177    -0.15100
F1486       F  0.07114292  0.97694853  0.33305233    -0.12700
C1487       C  0.02158809  0.00737147  0.20143500     0.25300
C1488       C  0.99417595  0.01949221  0.20983077    -0.22800
C1489       C  0.98531867  0.04628756  0.19711126     0.20200
C1490       C  0.00431502  0.06156139  0.17783175     0.25300
C1491       C  0.03256737  0.05018845  0.17067422    -0.22700
C1492       C  0.04042432  0.02235812  0.18203274     0.20200
F1493       F  0.06690040  0.00991132  0.17537297    -0.12700
F1494       F  0.03062217  0.98111345  0.21263560    -0.15100
F1495       F  0.99549105  0.08820444  0.16744659    -0.15100
F1496       F  0.95919056  0.05877411  0.20490956    -0.12700
C1497       C  0.61493926  0.98581462  0.78735027     0.25300
C1498       C  0.59759981  0.98819168  0.76163523    -0.22800
C1499       C  0.61203265  0.99268554  0.73435038     0.20200
C1500       C  0.64288727  0.99565211  0.73296316     0.25300
C1501       C  0.66011734  0.99343097  0.75865738    -0.22700
C1502       C  0.64589992  0.98803976  0.78580374     0.20200
F1503       F  0.66194870  0.98582776  0.81102873    -0.12700
F1504       F  0.60198947  0.98086607  0.81397063    -0.15100
F1505       F  0.65599541  0.00023970  0.70634574    -0.15100
F1506       F  0.59624225  0.99504792  0.70898142    -0.12700
C1507       C  0.47517092  0.97617272  0.70767241     0.25300
C1508       C  0.50185524  0.96224836  0.71528079    -0.22800
C1509       C  0.51000148  0.93639277  0.70034626     0.20200
C1510       C  0.49049113  0.92325133  0.68012158     0.25300
C1511       C  0.46256436  0.93599917  0.67423538    -0.22700
C1512       C  0.45591897  0.96342716  0.68725213     0.20200
F1513       F  0.43017981  0.97758156  0.68127321    -0.12700
F1514       F  0.46729892  0.00202295  0.72057600    -0.15100
F1515       F  0.49851351  0.89736979  0.66742401    -0.15100
F1516       F  0.53592710  0.92276477  0.70673095    -0.12700
C1517       C  0.50499021  0.26921431  0.63961650     0.25300
C1518       C  0.50024175  0.24341463  0.65625066    -0.22800
C1519       C  0.49635362  0.21651779  0.64135756     0.20200
C1520       C  0.49661660  0.21542800  0.61047867     0.25300
C1521       C  0.50033196  0.24135480  0.59363957    -0.22700
C1522       C  0.50479157  0.26826244  0.60862238     0.20200
F1523       F  0.50935519  0.29363996  0.59333364    -0.12700
F1524       F  0.50893490  0.29553044  0.65336349    -0.15100
F1525       F  0.49241396  0.18894643  0.59713370    -0.15100
F1526       F  0.49276121  0.19105647  0.65676587    -0.12700
C1527       C  0.53242602  0.25961519  0.10388949     0.25300
C1528       C  0.50567764  0.25509208  0.08853202    -0.22800
C1529       C  0.47940882  0.25171075  0.10488421     0.20200
C1530       C  0.47985961  0.25248955  0.13587743     0.25300
C1531       C  0.50673150  0.25577675  0.15128442    -0.22700
C1532       C  0.53302076  0.25944168  0.13492908     0.20200
F1533       F  0.55925261  0.26339478  0.14900603    -0.12700
F1534       F  0.55815132  0.26355479  0.08883164    -0.15100
F1535       F  0.45401966  0.24915646  0.15085786    -0.15100
F1536       F  0.45311240  0.24836510  0.09080683    -0.12700
C1537       C  0.32128443  0.04259729  0.97221138     0.25300
C1538       C  0.33168509  0.03494067  0.94384956    -0.22800
C1539       C  0.32552617  0.00622803  0.93322994     0.20200
C1540       C  0.30748077  0.98678949  0.94950980     0.25300
C1541       C  0.29519921  0.99568337  0.97658957    -0.22700
C1542       C  0.30314118  0.02333765  0.98815615     0.20200
F1543       F  0.29251061  0.03220609  0.01476373    -0.12700
F1544       F  0.32736016  0.06936969  0.98420239    -0.15100
F1545       F  0.30036742  0.96014452  0.93780273    -0.15100
F1546       F  0.33596084  0.99723499  0.90660131    -0.12700
C1547       C  0.30159472  0.22510020  0.91544690     0.25300
C1548       C  0.30105796  0.19462740  0.92147025    -0.22800
C1549       C  0.28308996  0.18427746  0.94453954     0.20200
C1550       C  0.26750096  0.20376254  0.96243069     0.25300
C1551       C  0.26949535  0.23466276  0.95810311    -0.22700
C1552       C  0.28601061  0.24498478  0.93363379     0.20200
F1553       F  0.28773348  0.27425483  0.92761011    -0.12700
F1554       F  0.31841152  0.23578669  0.89298060    -0.15100
F1555       F  0.25090549  0.19182906  0.98445480    -0.15100
F1556       F  0.28090814  0.15491826  0.95022030    -0.12700
C1557       C  0.43313443  0.17643986  0.98355598     0.25300
C1558       C  0.44321303  0.17061161  0.95449411    -0.22800
C1559       C  0.47003350  0.18378007  0.94541182     0.20200
C1560       C  0.48548463  0.20298773  0.96410085     0.25300
C1561       C  0.47477032  0.20977691  0.99260557    -0.22700
C1562       C  0.44877611  0.19568601  0.00234652     0.20200
F1563       F  0.43757244  0.20168052  0.02950309    -0.12700
F1564       F  0.40752719  0.16436236  0.99365912    -0.15100
F1565       F  0.51104811  0.21520619  0.95395834    -0.15100
F1566       F  0.48123248  0.17875479  0.91804179    -0.12700
C1567       C  0.24342572  0.06740844  0.78927605     0.25300
C1568       C  0.25299067  0.05063518  0.76484810    -0.22800
C1569       C  0.28282199  0.05356149  0.75577580     0.20200
C1570       C  0.30318675  0.06948255  0.77272797     0.25300
C1571       C  0.29429337  0.08365566  0.79872777    -0.22700
C1572       C  0.26396184  0.08388977  0.80603277     0.20200
F1573       F  0.25457153  0.09824206  0.83058814    -0.12700
F1574       F  0.21475962  0.06626493  0.79820958    -0.15100
F1575       F  0.33201583  0.07024085  0.76422827    -0.15100
F1576       F  0.29275244  0.03990585  0.73100213    -0.12700
C1577       C  0.48745625  0.05763338  0.83438809     0.25300
C1578       C  0.45886420  0.04628083  0.84041226    -0.22800
C1579       C  0.45309083  0.01649219  0.83357361     0.20200
C1580       C  0.47415553  0.99954453  0.81861015     0.25300
C1581       C  0.50156387  0.01181282  0.81017833    -0.22700
C1582       C  0.50858819  0.04050363  0.81952244     0.20200
F1583       F  0.53488328  0.05296747  0.81193642    -0.12700
F1584       F  0.49443180  0.08602646  0.84090067    -0.15100
F1585       F  0.46717445  0.97138480  0.81105565    -0.15100
F1586       F  0.42658824  0.00393802  0.84026477    -0.12700
C1587       C  0.43891674  0.16735146  0.77397619     0.25300
C1588       C  0.41837964  0.18263998  0.79161917    -0.22800
C1589       C  0.41412742  0.21293557  0.78687750     0.20200
C1590       C  0.43193864  0.22813277  0.76649498     0.25300
C1591       C  0.45347792  0.21303777  0.74999871    -0.22700
C1592       C  0.45606335  0.18239545  0.75304152     0.20200
F1593       F  0.47663889  0.16739204  0.73721729    -0.12700
F1594       F  0.44307839  0.13794710  0.77778873    -0.15100
F1595       F  0.42910872  0.25779954  0.76375319    -0.15100
F1596       F  0.39440572  0.22816313  0.80352865    -0.12700
C1597       C  0.72977321  0.29210082  0.92154332     0.25300
C1598       C  0.70045903  0.28600183  0.91271736    -0.22800
C1599       C  0.68753678  0.25897857  0.92166540     0.20200
C1600       C  0.70267563  0.23989019  0.94085247     0.25300
C1601       C  0.73092310  0.24744960  0.95145999    -0.22700
C1602       C  0.74466076  0.27317846  0.94071922     0.20200
F1603       F  0.77240223  0.28061257  0.94960509    -0.12700
F1604       F  0.74385182  0.31709738  0.91268799    -0.15100
F1605       F  0.68876828  0.21521797  0.95078979    -0.15100
F1606       F  0.65956379  0.25175400  0.91342025    -0.12700
C1607       C  0.52007885  0.30992738  0.96657266     0.25300
C1608       C  0.53363346  0.29974783  0.99264508    -0.22800
C1609       C  0.56287062  0.30845959  0.99890933     0.20200
C1610       C  0.57892189  0.32518118  0.97828152     0.25300
C1611       C  0.56582070  0.33344544  0.95143518    -0.22700
C1612       C  0.53614526  0.32644181  0.94604635     0.20200
F1613       F  0.52320031  0.33433600  0.92018813    -0.12700
F1614       F  0.49152697  0.30281919  0.96040019    -0.15100
F1615       F  0.60781430  0.33159136  0.98354969    -0.15100
F1616       F  0.57664533  0.29879506  0.02369244    -0.12700
C1617       C  0.74556187  0.42330556  0.81550479     0.25300
C1618       C  0.71883863  0.41423150  0.80194715    -0.22800
C1619       C  0.71413762  0.42177848  0.77212745     0.20200
C1620       C  0.73434478  0.43983111  0.75713172     0.25300
C1621       C  0.75991659  0.45037189  0.77138466    -0.22700
C1622       C  0.76588566  0.44106491  0.80028132     0.20200
F1623       F  0.79013199  0.45132037  0.81474669    -0.12700
F1624       F  0.75126304  0.41680061  0.84420002    -0.15100
F1625       F  0.72841753  0.44793843  0.72888529    -0.15100
F1626       F  0.68946548  0.41260940  0.75766346    -0.12700
C1627       C  0.54202181  0.46372306  0.83599393     0.25300
C1628       C  0.54930054  0.43456783  0.82866801    -0.22800
C1629       C  0.53250651  0.41953720  0.80727868     0.20200
C1630       C  0.51016026  0.43411940  0.79187216     0.25300
C1631       C  0.50463638  0.46399604  0.79735175    -0.22700
C1632       C  0.52006471  0.47853745  0.82003036     0.20200
F1633       F  0.51526767  0.50760890  0.82523881    -0.12700
F1634       F  0.55775000  0.47850783  0.85680768    -0.15100
F1635       F  0.49556626  0.41979208  0.76993069    -0.15100
F1636       F  0.53858622  0.39101220  0.80051967    -0.12700
C1637       C  0.57079849  0.31882560  0.76372795     0.25300
C1638       C  0.58300254  0.30488442  0.78884997    -0.22800
C1639       C  0.57506748  0.27538128  0.79466641     0.20200
C1640       C  0.55466086  0.26065420  0.77665649     0.25300
C1641       C  0.54200450  0.27485859  0.75213313    -0.22700
C1642       C  0.55065647  0.30386209  0.74550506     0.20200
F1643       F  0.53822554  0.31834978  0.72241232    -0.12700
F1644       F  0.57695539  0.34751585  0.75762308    -0.15100
F1645       F  0.54723104  0.23235873  0.78323893    -0.15100
F1646       F  0.58679262  0.26076757  0.81803401    -0.12700
C1647       C  0.14424888  0.52770146  0.25752749     0.25300
C1648       C  0.15833721  0.50023111  0.25407280    -0.22800
C1649       C  0.14080036  0.47482280  0.25036905     0.20200
C1650       C  0.10989139  0.47694270  0.24928361     0.25300
C1651       C  0.09586488  0.50437308  0.25266055    -0.22700
C1652       C  0.11327911  0.52968397  0.25723079     0.20200
F1653       F  0.10034958  0.55651109  0.26018629    -0.12700
F1654       F  0.16048340  0.55266949  0.26126706    -0.15100
F1655       F  0.09358857  0.45209917  0.24504583    -0.15100
F1656       F  0.15360420  0.44806714  0.24649616    -0.12700
C1657       C  0.72060798  0.60679749  0.00470528     0.25300
C1658       C  0.74791777  0.59230408  0.00101774    -0.22800
C1659       C  0.77327475  0.60955962  0.99522347     0.20200
C1660       C  0.77135440  0.64041661  0.99292469     0.25300
C1661       C  0.74421375  0.65496014  0.99731506    -0.22700
C1662       C  0.71886812  0.63776265  0.00333200     0.20200
F1663       F  0.69220926  0.65091513  0.00729775    -0.12700
F1664       F  0.69563971  0.59102739  0.01037111    -0.15100
F1665       F  0.79630922  0.65616603  0.98716367    -0.15100
F1666       F  0.79995056  0.59649282  0.99111322    -0.12700
C1667       C  0.69276223  0.50107616  0.95121463     0.25300
C1668       C  0.70971800  0.49189411  0.97564144    -0.22800
C1669       C  0.70865511  0.46179358  0.98385820     0.20200
C1670       C  0.69314248  0.44126567  0.96685129     0.25300
C1671       C  0.67757716  0.45021336  0.94169206    -0.22700
C1672       C  0.67670264  0.48037250  0.93446954     0.20200
F1673       F  0.66197212  0.48949680  0.91003749    -0.12700
F1674       F  0.69313648  0.52967424  0.94239084    -0.15100
F1675       F  0.69369663  0.41236802  0.97475790    -0.15100
F1676       F  0.72327712  0.45185365  0.00807063    -0.12700
C1677       C  0.94084858  0.33052216  0.01142273     0.25300
C1678       C  0.95130071  0.33227208  0.04080478    -0.22800
C1679       C  0.97717020  0.31669886  0.04822296     0.20200
C1680       C  0.98989715  0.29716099  0.02814697     0.25300
C1681       C  0.97735141  0.29286643  0.00003970    -0.22700
C1682       C  0.95377785  0.31095567  0.99124550     0.20200
F1683       F  0.94177608  0.30819522  0.96391937    -0.12700
F1684       F  0.91714157  0.34652050  0.00249643    -0.15100
F1685       F  0.01400994  0.28154328  0.03671438    -0.15100
F1686       F  0.98950297  0.31911029  0.07544067    -0.12700
C1687       C  0.91625901  0.29320148  0.22840658     0.25300
C1688       C  0.92776549  0.31819700  0.21388817    -0.22800
C1689       C  0.95404437  0.33113613  0.22469304     0.20200
C1690       C  0.97000701  0.31766674  0.24736994     0.25300
C1691       C  0.96012297  0.29103286  0.25963663    -0.22700
C1692       C  0.93257897  0.27949794  0.25093262     0.20200
F1693       F  0.92270132  0.25368707  0.26258307    -0.12700
F1694       F  0.89054202  0.28068811  0.21924847    -0.15100
F1695       F  0.99639685  0.32937557  0.25576018    -0.15100
F1696       F  0.96493625  0.35631763  0.21250491    -0.12700
C1697       C  0.95748960  0.47474045  0.17275615     0.25300
C1698       C  0.96539381  0.44599062  0.16425127    -0.22800
C1699       C  0.99368783  0.43535052  0.17198101     0.20200
C1700       C  0.01241559  0.45211291  0.19004005     0.25300
C1701       C  0.00309203  0.47961562  0.20082066    -0.22700
C1702       C  0.97610366  0.49131651  0.19083082     0.20200
F1703       F  0.96717767  0.51857688  0.19937963    -0.12700
F1704       F  0.93112768  0.48651077  0.16462585    -0.15100
F1705       F  0.03859443  0.44039021  0.19877122    -0.15100
F1706       F  0.00250660  0.40790832  0.16392620    -0.12700
C1707       C  0.79249222  0.30285819  0.06316623     0.25300
C1708       C  0.81566925  0.29330412  0.08122999    -0.22800
C1709       C  0.82233544  0.26299952  0.08226970     0.20200
C1710       C  0.80726291  0.24293718  0.06372905     0.25300
C1711       C  0.78510914  0.25297578  0.04419599    -0.22700
C1712       C  0.77717355  0.28309477  0.04529300     0.20200
F1713       F  0.75482921  0.29395580  0.02851736    -0.12700
F1714       F  0.78511219  0.33186415  0.06220769    -0.15100
F1715       F  0.81544199  0.21416904  0.06381902    -0.15100
F1716       F  0.84464007  0.25314707  0.09969000    -0.12700
C1717       C  0.83132177  0.45616713  0.03079916     0.25300
C1718       C  0.83789609  0.46006769  0.06093375    -0.22800
C1719       C  0.82777475  0.48600624  0.07505272     0.20200
C1720       C  0.80961505  0.50614791  0.05998718     0.25300
C1721       C  0.80127536  0.50076659  0.03062472    -0.22700
C1722       C  0.81327157  0.47621576  0.01593282     0.20200
F1723       F  0.80629937  0.47083111  0.98727021    -0.12700
F1724       F  0.84134288  0.43227656  0.01579722    -0.15100
F1725       F  0.79822520  0.52948960  0.07485791    -0.15100
F1726       F  0.83372749  0.49101872  0.10399738    -0.12700
C1727       C  0.77231440  0.41372868  0.18217126     0.25300
C1728       C  0.80120430  0.41262847  0.19365249    -0.22800
C1729       C  0.80791417  0.42851061  0.21930688     0.20200
C1730       C  0.78659173  0.44630854  0.23259786     0.25300
C1731       C  0.75802056  0.44892527  0.22029431    -0.22700
C1732       C  0.75081188  0.43178737  0.19540108     0.20200
F1733       F  0.72391641  0.43444938  0.18238275    -0.12700
F1734       F  0.76572089  0.39942264  0.15668417    -0.15100
F1735       F  0.79440506  0.46201738  0.25691732    -0.15100
F1736       F  0.83567963  0.42782149  0.23075405    -0.12700
C1737       C  0.92683707  0.72375813  0.29699207     0.25300
C1738       C  0.91805050  0.69487973  0.28965695    -0.22800
C1739       C  0.92816401  0.68245914  0.26292909     0.20200
C1740       C  0.94790894  0.69802551  0.24482698     0.25300
C1741       C  0.95789327  0.72612814  0.25317058    -0.22700
C1742       C  0.94662581  0.73914528  0.27898120     0.20200
F1743       F  0.95578989  0.76641501  0.28744439    -0.12700
F1744       F  0.91726699  0.73673916  0.32226610    -0.15100
F1745       F  0.95937163  0.68452153  0.22065112    -0.15100
F1746       F  0.92101135  0.65432932  0.25547217    -0.12700
C1747       C  0.92750420  0.65349397  0.48290329     0.25300
C1748       C  0.93853505  0.65368753  0.45383494    -0.22800
C1749       C  0.96526892  0.66824982  0.44787357     0.20200
C1750       C  0.97956975  0.68434753  0.46989015     0.25300
C1751       C  0.96679785  0.68729726  0.49821598    -0.22700
C1752       C  0.94149831  0.67030823  0.50501801     0.20200
F1753       F  0.92889824  0.67186948  0.53218584    -0.12700
F1754       F  0.90173970  0.63933321  0.48918767    -0.15100
F1755       F  0.00519089  0.69848412  0.46286673    -0.15100
F1756       F  0.97667766  0.66830886  0.42010315    -0.12700
C1757       C  0.96022805  0.53417595  0.32821463     0.25300
C1758       C  0.95307929  0.56392098  0.32366004    -0.22800
C1759       C  0.96987794  0.58070539  0.30345439     0.20200
C1760       C  0.99262803  0.56765333  0.28716345     0.25300
C1761       C  0.99881303  0.53761548  0.29065570    -0.22700
C1762       C  0.98265870  0.52097280  0.31140673     0.20200
F1763       F  0.98745258  0.49155554  0.31406111    -0.12700
F1764       F  0.94407030  0.51744556  0.34721277    -0.15100
F1765       F  0.00726162  0.58383132  0.26650993    -0.15100
F1766       F  0.96360968  0.60962354  0.29885027    -0.12700
C1767       C  0.78435010  0.53880272  0.42034280     0.25300
C1768       C  0.81490903  0.54206087  0.42599460    -0.22800
C1769       C  0.82854147  0.52225596  0.44576211     0.20200
C1770       C  0.81163751  0.50071587  0.46054986     0.25300
C1771       C  0.78098871  0.49870643  0.45576289    -0.22700
C1772       C  0.76766672  0.51754043  0.43520941     0.20200
F1773       F  0.73809031  0.51582301  0.43009965    -0.12700
F1774       F  0.77031883  0.55641006  0.40057096    -0.15100
F1775       F  0.82483551  0.48306052  0.48080437    -0.15100
F1776       F  0.85784157  0.52465414  0.45192637    -0.12700
C1777       C  0.77659837  0.70613828  0.42007288     0.25300
C1778       C  0.80590032  0.71143997  0.41065322    -0.22800
C1779       C  0.81958604  0.73840320  0.41850901     0.20200
C1780       C  0.80535725  0.75806756  0.43757959     0.25300
C1781       C  0.77734207  0.75113786  0.44906266    -0.22700
C1782       C  0.76263041  0.72569030  0.43923930     0.20200
F1783       F  0.73502388  0.71911378  0.44922662    -0.12700
F1784       F  0.76182430  0.68126831  0.41211272    -0.15100
F1785       F  0.82002434  0.78257650  0.44677320    -0.15100
F1786       F  0.84742468  0.74508585  0.40928653    -0.12700
C1787       C  0.79650440  0.57319618  0.26685937     0.25300
C1788       C  0.78771271  0.58592708  0.29380401    -0.22800
C1789       C  0.75834915  0.58104680  0.30366143     0.20200
C1790       C  0.73958147  0.56138067  0.28867278     0.25300
C1791       C  0.74970364  0.54638033  0.26348839    -0.22700
C1792       C  0.77771834  0.55383130  0.25188768     0.20200
F1793       F  0.78764509  0.54121067  0.22656507    -0.12700
F1794       F  0.82393334  0.57816248  0.25557048    -0.15100
F1795       F  0.71249189  0.55530741  0.30021560    -0.15100
F1796       F  0.74827299  0.59371284  0.32888635    -0.12700
C1797       C  0.52292966  0.56373587  0.67424022     0.25300
C1798       C  0.55253759  0.55445373  0.67229442    -0.22800
C1799       C  0.56115364  0.52877779  0.68710459     0.20200
C1800       C  0.54098264  0.51322726  0.70461248     0.25300
C1801       C  0.51173724  0.52354470  0.70853711    -0.22700
C1802       C  0.50264385  0.54844122  0.69226718     0.20200
F1803       F  0.47473456  0.55905565  0.69510094    -0.12700
F1804       F  0.51419671  0.58875422  0.66034239    -0.15100
F1805       F  0.55048898  0.48832271  0.71825891    -0.15100
F1806       F  0.58952805  0.51915202  0.68523852    -0.12700
C1807       C  0.69136232  0.73721771  0.58037360     0.25300
C1808       C  0.70136371  0.70781563  0.58311541    -0.22800
C1809       C  0.72808192  0.70003281  0.56907498     0.20200
C1810       C  0.74280126  0.72006725  0.55080446     0.25300
C1811       C  0.73140550  0.74853844  0.54600787    -0.22700
C1812       C  0.70630018  0.75737381  0.56202934     0.20200
F1813       F  0.69494388  0.78480504  0.55838224    -0.12700
F1814       F  0.66632904  0.74622415  0.59425033    -0.15100
F1815       F  0.76783954  0.71107772  0.53686764    -0.15100
F1816       F  0.73948689  0.67249000  0.57171878    -0.12700
C1817       C  0.65946480  0.52501582  0.54041315     0.25300
C1818       C  0.67393850  0.53973404  0.56370106    -0.22800
C1819       C  0.70290528  0.53103130  0.57132149     0.20200
C1820       C  0.71780714  0.50990178  0.55467401     0.25300
C1821       C  0.70410532  0.49671328  0.53031334    -0.22700
C1822       C  0.67457583  0.50369566  0.52370268     0.20200
F1823       F  0.66106666  0.49124477  0.50002065    -0.12700
F1824       F  0.63150219  0.53256630  0.53263151    -0.15100
F1825       F  0.74626343  0.50320640  0.56154263    -0.15100
F1826       F  0.71720246  0.54348298  0.59457931    -0.12700
C1827       C  0.71194788  0.57280843  0.72410083     0.25300
C1828       C  0.71805081  0.58420227  0.69577056    -0.22800
C1829       C  0.74627610  0.57864481  0.68329665     0.20200
C1830       C  0.76656209  0.56016738  0.69763024     0.25300
C1831       C  0.75909715  0.54671190  0.72452134    -0.22700
C1832       C  0.73212831  0.55419022  0.73817178     0.20200
F1833       F  0.72482138  0.54256901  0.76485848    -0.12700
F1834       F  0.68584130  0.57847554  0.73781972    -0.15100
F1835       F  0.79250964  0.55360114  0.68400147    -0.15100
F1836       F  0.75375592  0.58957196  0.65638155    -0.12700
C1837       C  0.58092597  0.68731615  0.52514700     0.25300
C1838       C  0.56655194  0.66537863  0.54191787    -0.22800
C1839       C  0.53665162  0.65897429  0.53594077     0.20200
C1840       C  0.52089435  0.67588343  0.51514463     0.25300
C1841       C  0.53513900  0.69864491  0.49935234    -0.22700
C1842       C  0.56542283  0.70362195  0.50400388     0.20200
F1843       F  0.57950344  0.72584124  0.48952109    -0.12700
F1844       F  0.60989853  0.69369404  0.53001790    -0.15100
F1845       F  0.49141334  0.67119902  0.51167467    -0.15100
F1846       F  0.52218718  0.63796341  0.55177604    -0.12700
C1847       C  0.58049378  0.68502057  0.73551329     0.25300
C1848       C  0.58536918  0.69474439  0.70622250    -0.22800
C1849       C  0.57208487  0.72133008  0.69713973     0.20200
C1850       C  0.55257280  0.73625746  0.71581445     0.25300
C1851       C  0.54588937  0.72515871  0.74411468    -0.22700
C1852       C  0.56107943  0.70015786  0.75424904     0.20200
F1853       F  0.55571104  0.68912142  0.78161523    -0.12700
F1854       F  0.59328467  0.65999306  0.74577350    -0.15100
F1855       F  0.53966080  0.76135919  0.70582964    -0.15900
F1856       F  0.57696122  0.73249458  0.66972405    -0.12700
loop_ 
_geom_bond_atom_site_label_1 
_geom_bond_atom_site_label_2 
_geom_bond_distance 
_geom_bond_site_symmetry_2 
_ccdc_geom_bond_type 
O1           C17   1.278       .  A
O1           Zn7   2.031       .  S
C2           O18   1.275       .  A
C2           O15   1.275       .  A
C2         C1808   1.494       .  S
O3           C16   1.279       .  A
O3          Cd10   2.110       .  S
O4           C22   1.274       .  A
O4          Cd13   2.048       .  S
O5           C19   1.278       .  A
O5           Cd9   2.093       .  S
O6           C17   1.276       .  A
O6           Cd9   2.071       .  S
Zn7          O18   2.031       .  S
Zn7          O20   2.021       .  S
Zn7          O12   1.936       .  S
O8           C19   1.273       .  A
O8          Cd13   2.066       .  S
Cd9          O11   2.070       .  S
Cd9          O12   1.993       .  S
Cd10         O14   2.102       .  S
Cd10         O23   2.108       .  S
Cd10         O12   2.021       .  S
O11          C21   1.276       .  A
O12         Cd13   1.982       .  S
Cd13         O15   2.066       .  S
O14          C21   1.279       .  A
C16          O20   1.275       .  A
C16        C1838   1.486       .  S
C17        C1848   1.493       .  S
C19        C1828   1.497       .  S
C21        C1798   1.477       .  S
C22          O23   1.280       .  A
C22        C1818   1.486       .  S
O24          C40   1.278       .  A
O24         Zn30   2.032       .  S
C25          O41   1.274       .  A
C25          O38   1.274       .  A
C25        C1738   1.480       .  S
O26          C39   1.279       .  A
O26         Cd33   2.098       .  S
O27          C45   1.274       .  A
O27         Cd36   2.059       .  S
O28          C42   1.276       .  A
O28         Cd32   2.063       .  S
O29          C40   1.273       .  A
O29         Cd32   2.066       .  S
Zn30         O41   2.013       .  S
Zn30         O43   1.994       .  S
Zn30         O35   1.921       .  S
O31          C42   1.274       .  A
O31         Cd36   2.062       .  S
Cd32         O34   2.057       .  S
Cd32         O35   1.975       .  S
Cd33         O37   2.096       .  S
Cd33         O46   2.103       .  S
Cd33         O35   2.010       .  S
O34          C44   1.275       .  A
O35         Cd36   1.975       .  S
Cd36         O38   2.055       .  S
O37          C44   1.279       .  A
C39          O43   1.273       .  A
C39        C1758   1.476       .  S
C40        C1788   1.493       .  S
C42        C1778   1.486       .  S
C44        C1768   1.489       .  S
C45          O46   1.278       .  A
C45        C1748   1.476       .  S
O47          C63   1.275       .  A
O47         Zn53   2.010       .  S
C48          O64   1.274       .  A
C48          O61   1.277       .  A
C48        C1718   1.494       .  S
O49          C62   1.278       .  A
O49         Cd56   2.097       .  S
O50          C68   1.277       .  A
O50         Cd59   2.062       .  S
O51          C65   1.278       .  A
O51         Cd55   2.074       .  S
O52          C63   1.272       .  A
O52         Cd55   2.058       .  S
Zn53         O64   2.025       .  S
Zn53         O66   2.003       .  S
Zn53         O58   1.922       .  S
O54          C65   1.275       .  A
O54         Cd59   2.072       .  S
Cd55         O57   2.063       .  S
Cd55         O58   1.979       .  S
Cd56         O60   2.104       .  S
Cd56         O69   2.107       .  S
Cd56         O58   2.008       .  S
O57          C67   1.276       .  A
O58         Cd59   1.974       .  S
Cd59         O61   2.080       .  S
O60          C67   1.279       .  A
C62          O66   1.274       .  A
C62        C1728   1.474       .  S
C63        C1698   1.483       .  S
C65        C1678   1.491       .  S
C67        C1688   1.486       .  S
C68          O69   1.280       .  A
C68        C1708   1.480       .  S
C70        C1658   1.496       .  S
C70          N71   1.370       .  A
C70          N75   1.370   1_554  A
N71          C72   1.363       .  A
C72        C1721   1.483       .  S
C72          N73   1.350       .  A
N73          C74   1.351   1_554  A
C74        C1668   1.494       .  S
C74          N75   1.365       .  A
C76        C1651   1.480       .  S
C76          N77   1.362       .  A
C76          N81   1.365       .  A
N77          C78   1.358       .  A
C78        C1701   1.478       .  S
C78          N79   1.354       .  A
N79          C80   1.351       .  A
C80        C1761   1.469   1_455  S
C80          N81   1.360       .  A
O82          C98   1.278       .  A
O82         Zn88   2.041       .  S
C83          O99   1.277       .  A
C83          O96   1.276       .  A
C83        C1598   1.494       .  S
O84          C97   1.274       .  A
O84         Cd91   2.073       .  S
O85         C103   1.276       .  A
O85         Cd94   2.077       .  S
O86         C100   1.280       .  A
O86         Cd90   2.087       .  S
O87          C98   1.275       .  A
O87         Cd90   2.072       .  S
Zn88         O99   2.042       .  S
Zn88        O101   2.009       .  S
Zn88         O93   1.939       .  S
O89         C100   1.275       .  A
O89         Cd94   2.066       .  S
Cd90         O92   2.062       .  S
Cd90         O93   1.989       .  S
Cd91         O95   2.076       .  S
Cd91        O104   2.088       .  S
Cd91         O93   2.007       .  S
O92         C102   1.275       .  A
O93         Cd94   1.979       .  S
Cd94         O96   2.065       .  S
O95         C102   1.275       .  A
C97         O101   1.274       .  A
C97        C1611   1.464       .  S
C98        C1638   1.492       .  S
C100       C1618   1.491       .  S
C102       C1628   1.471       .  S
C103        O104   1.276       .  A
C103       C1671   1.478       .  S
O105        C121   1.279       .  A
O105       Zn111   2.053       .  S
C106        O122   1.276       .  A
C106        O119   1.279       .  A
C106       C1578   1.496       .  S
O107        C120   1.279       .  A
O107       Cd114   2.099       .  S
O108        C126   1.279       .  A
O108       Cd117   2.090       .  S
O109        C123   1.277       .  A
O109       Cd113   2.075       .  S
O110        C121   1.275       .  A
O110       Cd113   2.084       .  S
Zn111       O122   2.030       .  S
Zn111       O124   2.005       .  S
Zn111       O116   1.936       .  S
O112        C123   1.277       .  A
O112       Cd117   2.087       .  S
Cd113       O115   2.057       .  S
Cd113       O116   1.986       .  S
Cd114       O118   2.106       .  S
Cd114       O127   2.110       .  S
Cd114       O116   2.025       .  S
O115        C125   1.275       .  A
O116       Cd117   2.000       .  S
Cd117       O119   2.091       .  S
O118        C125   1.279       .  A
C120        O124   1.274       .  A
C120       C1588   1.477       .  S
C121       C1558   1.504       .  S
C123       C1538   1.496       .  S
C125       C1548   1.485       .  S
C126        O127   1.279       .  A
C126       C1571   1.486       .  S
C128       C1528   1.490       .  S
C128        N129   1.364       .  A
C128        N133   1.371       .  A
N129        C130   1.359       .  A
C130       C1608   1.477   1_554  S
C130        N131   1.352   1_554  A
N131        C132   1.352   1_556  A
C132       C1561   1.496   1_554  S
C132        N133   1.367       .  A
C134       C1518   1.483       .  S
C134        N135   1.363       .  A
C134        N139   1.363       .  A
N135        C136   1.359       .  A
C136       C1591   1.472       .  S
C136        N137   1.355       .  A
N137        C138   1.356       .  A
C138       C1641   1.480       .  S
C138        N139   1.362       .  A
C140       C1498   1.490       .  S
C140        N141   1.364       .  A
C140        N145   1.368       .  A
N141        C142   1.358       .  A
C142       C1508   1.480       .  S
C142        N143   1.352       .  A
N143        C144   1.353       .  A
C144       C1581   1.484   1_565  S
C144        N145   1.364       .  A
C146       C1468   1.491       .  S
C146        N147   1.368       .  A
C146        N151   1.367   1_565  A
N147        C148   1.365       .  A
C148       C1481   1.490       .  S
C148        N149   1.353       .  A
N149        C150   1.352   1_565  A
C150       C1488   1.485       .  S
C150        N151   1.362       .  A
C152       C1448   1.491       .  S
C152        N153   1.371       .  A
C152        N157   1.366   1_556  A
N153        C154   1.367       .  A
C154       C1551   1.502       .  S
C154        N155   1.353   1_556  A
N155        C156   1.348       .  A
C156       C1458   1.476       .  S
C156        N157   1.358       .  A
C158       C1428   1.480       .  S
C158        N159   1.366   1_554  A
C158        N163   1.362       .  A
N159        C160   1.363       .  A
C160       C1541   1.483       .  S
C160        N161   1.356   1_556  A
N161        C162   1.354       .  A
C162       C1438   1.481       .  S
C162        N163   1.358       .  A
C164       C1398   1.491       .  S
C164        N165   1.367       .  A
C164        N169   1.368   1_565  A
N165        C166   1.357       .  A
C166       C1408   1.474       .  S
C166        N167   1.349       .  A
N167        C168   1.352   1_565  A
C168       C1418   1.498       .  S
C168        N169   1.364       .  A
C170       C1378   1.497       .  S
C170        N171   1.365       .  A
C170        N175   1.366   1_655  A
N171        C172   1.360       .  A
C172       C1681   1.481   1_556  S
C172        N173   1.352       .  A
N173        C174   1.351   1_655  A
C174       C1391   1.480       .  S
C174        N175   1.360       .  A
C176       C1361   1.488       .  S
C176        N177   1.365   1_455  A
C176        N181   1.372       .  A
N177        C178   1.355       .  A
C178       C1691   1.470       .  S
C178        N179   1.348   1_655  A
N179        C180   1.353       .  A
C180       C1371   1.503       .  S
C180        N181   1.369       .  A
O182        C198   1.277       .  A
O182       Zn188   2.029       .  S
C183        O199   1.276       .  A
C183        O196   1.276       .  A
C183       C1441   1.491       .  S
O184        C197   1.278       .  A
O184       Cd191   2.102       .  S
O185        C203   1.275       .  A
O185       Cd194   2.066       .  S
O186        C200   1.277       .  A
O186       Cd190   2.080       .  S
O187        C198   1.274       .  A
O187       Cd190   2.068       .  S
Zn188       O199   2.029       .  S
Zn188       O201   2.003       .  S
Zn188       O193   1.930       .  S
O189        C200   1.274       .  A
O189       Cd194   2.069       .  S
Cd190       O192   2.066       .  S
Cd190       O193   1.989       .  S
Cd191       O195   2.108       .  S
Cd191       O204   2.103       .  S
Cd191       O193   2.019       .  S
O192        C202   1.276       .  A
O193       Cd194   1.988       .  S
Cd194       O196   2.070       .  S
O195        C202   1.280       .  A
C197        O201   1.274       .  A
C197       C1421   1.481       .  S
C198       C1491   1.494       .  S
C200       C1388   1.493       .  S
C202       C1368   1.483       .  S
C203        O204   1.279       .  A
C203       C1461   1.476       .  S
O205        C221   1.277       .  A
O205       Zn211   2.040       .  S
C206        O222   1.275       .  A
C206        O219   1.277       .  A
C206       C1511   1.493       .  S
O207        C220   1.276       .  A
O207       Cd214   2.081       .  S
O208        C226   1.277       .  A
O208       Cd217   2.082       .  S
O209        C223   1.278       .  A
O209       Cd213   2.074       .  S
O210        C221   1.275       .  A
O210       Cd213   2.080       .  S
Zn211       O222   2.026       .  S
Zn211       O224   2.001       .  S
Zn211       O216   1.929       .  S
O212        C223   1.275       .  A
O212       Cd217   2.064       .  S
Cd213       O215   2.062       .  S
Cd213       O216   1.981       .  S
Cd214       O218   2.085       .  S
Cd214       O227   2.115       .  S
Cd214       O216   2.010       .  S
O215        C225   1.276       .  A
O216       Cd217   1.979       .  S
Cd217       O219   2.072       .  S
O218        C225   1.277       .  A
C220        O224   1.274       .  A
C220       C1338   1.463       .  S
C221       C1328   1.499       .  S
C223       C1318   1.488       .  S
C225       C1348   1.483       .  S
C226        O227   1.279       .  A
C226       C1308   1.489       .  S
O228        C244   1.279       .  A
O228       Zn234   2.045       .  S
C229        O245   1.276       .  A
C229        O242   1.276       .  A
C229       C1271   1.489       .  S
O230        C243   1.276       .  A
O230       Cd237   2.089       .  S
O231        C249   1.275       .  A
O231       Cd240   2.068       .  S
O232        C246   1.277       .  A
O232       Cd236   2.082       .  S
O233        C244   1.274       .  A
O233       Cd236   2.072       .  S
Zn234       O245   2.021       .  S
Zn234       O247   2.017       .  S
Zn234       O239   1.932       .  S
O235        C246   1.275       .  A
O235       Cd240   2.079       .  S
Cd236       O238   2.051       .  S
Cd236       O239   1.981       .  S
Cd237       O241   2.077       .  S
Cd237       O250   2.087       .  S
Cd237       O239   2.016       .  S
O238        C248   1.275       .  A
O239       Cd240   1.987       .  S
Cd240       O242   2.064       .  S
O241        C248   1.275       .  A
C243        O247   1.275       .  A
C243       C1411   1.492       .  S
C244       C1478   1.497       .  S
C246       C1281   1.497       .  S
C248       C1291   1.466       .  S
C249        O250   1.276       .  A
C249       C1301   1.471       .  S
C251       C1258   1.491       .  S
C251        N252   1.370       .  A
C251        N256   1.368       .  A
N252        C253   1.365       .  A
C253       C1751   1.491       .  S
C253        N254   1.353       .  A
N254        C255   1.350       .  A
C255       C1278   1.484   1_655  S
C255        N256   1.361       .  A
C257       C1248   1.483       .  S
C257        N258   1.362       .  A
C257        N262   1.362       .  A
N258        C259   1.359       .  A
C259       C1268   1.484   1_545  S
C259        N260   1.355   1_545  A
N260        C261   1.354   1_565  A
C261       C1321   1.473   1_545  S
C261        N262   1.358       .  A
C263       C1238   1.478       .  S
C263        N264   1.363       .  A
C263        N268   1.366       .  A
N264        C265   1.356       .  A
C265       C1351   1.467       .  S
C265        N266   1.350       .  A
N266        C267   1.354       .  A
C267       C1298   1.489       .  S
C267        N268   1.363       .  A
C269       C1228   1.479       .  S
C269        N270   1.363   1_455  A
C269        N274   1.366       .  A
N270        C271   1.357       .  A
C271       C1741   1.471       .  S
C271        N272   1.349   1_655  A
N272        C273   1.352       .  A
C273       C1288   1.483       .  S
C273        N274   1.362       .  A
C275       C1218   1.505       .  S
C275        N276   1.372       .  A
C275        N280   1.375   1_545  A
N276        C277   1.364       .  A
C277       C1568   1.499       .  S
C277        N278   1.351       .  A
N278        C279   1.352   1_545  A
C279       C1311   1.501       .  S
C279        N280   1.368       .  A
C281       C1208   1.489       .  S
C281        N282   1.371       .  A
C281        N286   1.366   1_554  A
N282        C283   1.366       .  A
C283       C1711   1.497       .  S
C283        N284   1.354   1_554  A
N284        C285   1.351       .  A
C285       C1601   1.483       .  S
C285        N286   1.358       .  A
C287       C1198   1.476       .  S
C287        N288   1.361       .  A
C287        N292   1.364       .  A
N288        C289   1.357       .  A
C289       C1341   1.474       .  S
C289        N290   1.354       .  A
N290        C291   1.354       .  A
C291       C1851   1.484       .  S
C291        N292   1.361       .  A
C293       C1191   1.494       .  S
C293        N294   1.367       .  A
C293        N298   1.368       .  A
N294        C295   1.363       .  A
C295       C1841   1.479       .  S
C295        N296   1.353       .  A
N296        C297   1.357       .  A
C297       C1331   1.499       .  S
C297        N298   1.365       .  A
C299       C1178   1.479       .  S
C299        N300   1.360       .  A
C299        N304   1.367       .  A
N300        C301   1.354       .  A
C301       C1781   1.469       .  S
C301        N302   1.351       .  A
N302        C303   1.353       .  A
C303       C1811   1.485       .  S
C303        N304   1.364       .  A
C305       C1168   1.485       .  S
C305        N306   1.368       .  A
C305        N310   1.363       .  A
N306        C307   1.364       .  A
C307       C1801   1.493       .  S
C307        N308   1.354       .  A
N308        C309   1.350       .  A
C309       C1631   1.465       .  S
C309        N310   1.356       .  A
C311       C1158   1.487       .  S
C311        N312   1.362       .  A
C311        N316   1.366       .  A
N312        C313   1.362       .  A
C313       C1621   1.475       .  S
C313        N314   1.352       .  A
N314        C315   1.351       .  A
C315       C1831   1.482       .  S
C315        N316   1.365       .  A
C317       C1148   1.482       .  S
C317        N318   1.366       .  A
C317        N322   1.364       .  A
N318        C319   1.361       .  A
C319       C1771   1.473       .  S
C319        N320   1.354       .  A
N320        C321   1.352       .  A
C321       C1821   1.470       .  S
C321        N322   1.358       .  A
C323       C1138   1.498       .  S
C323        N324   1.369       .  A
C323        N328   1.369       .  A
N324        C325   1.361       .  A
C325       C1791   1.486       .  S
C325        N326   1.350       .  A
N326        C327   1.351       .  A
C327       C1731   1.486       .  S
C327        N328   1.363       .  A
O329        C345   1.275       .  A
O329       Zn335   2.028       .  S
C330        O346   1.277       .  A
C330        O343   1.274       .  A
C330       C1111   1.492       .  S
O331        C344   1.276       .  A
O331       Cd338   2.083       .  S
O332        C350   1.274       .  A
O332       Cd341   2.063       .  S
O333        C347   1.273       .  A
O333       Cd337   2.064       .  S
O334        C345   1.274       .  A
O334       Cd337   2.053       .  S
Zn335       O346   2.031       .  S
Zn335       O348   2.002       .  S
Zn335       O340   1.932       .  S
O336        C347   1.276       .  A
O336       Cd341   2.065       .  S
Cd337       O339   2.064       .  S
Cd337       O340   1.982       .  S
Cd338       O342   2.102       .  S
Cd338       O351   2.084       .  S
Cd338       O340   2.010       .  S
O339        C349   1.274       .  A
O340       Cd341   1.983       .  S
Cd341       O343   2.065       .  S
O342        C349   1.278       .  A
C344        O348   1.274       .  A
C344       C1131   1.469       .  S
C345       C1088   1.486       .  S
C347       C1118   1.487       .  S
C349       C1098   1.474       .  S
C350        O351   1.276       .  A
C350       C1078   1.468       .  S
O352        C368   1.272       .  A
O352       Zn358   1.996       .  S
C353        O369   1.275       .  A
C353        O366   1.273       .  A
C353       C1071   1.483       .  S
O354        C367   1.277       .  A
O354       Cd361   2.085       .  S
O355        C373   1.274       .  A
O355       Cd364   2.056       .  S
O356        C370   1.275       .  A
O356       Cd360   2.069       .  S
O357        C368   1.279       .  A
O357       Cd360   2.088       .  S
Zn358       O369   2.014       .  S
Zn358       O371   2.000       .  S
Zn358       O363   1.911       .  S
O359        C370   1.275       .  A
O359       Cd364   2.062       .  S
Cd360       O362   2.071       .  S
Cd360       O363   1.981       .  S
Cd361       O365   2.094       .  S
Cd361       O374   2.101       .  S
Cd361       O363   2.006       .  S
O362        C372   1.278       .  A
O363       Cd364   1.972       .  S
Cd364       O366   2.061       .  S
O365        C372   1.279       .  A
C367        O371   1.274       .  A
C367       C1041   1.482       .  S
C368       C1058   1.485       .  S
C370       C1018   1.488       .  S
C372       C1048   1.481       .  S
C373        O374   1.278       .  A
C373       C1028   1.473       .  S
C375       C1521   1.491       .  S
C375        N376   1.367       .  A
C375        N380   1.364       .  A
N376        C377   1.363       .  A
C377       C1008   1.480       .  S
C377        N378   1.352       .  A
N378        C379   1.349       .  A
C379       C1061   1.474       .  S
C379        N380   1.358       .  A
O381        C397   1.276       .  A
O381       Zn387   2.030       .  S
C382        O398   1.278       .  A
C382        O395   1.273       .  A
C382        C991   1.495       .  S
O383        C396   1.276       .  A
O383       Cd390   2.089       .  S
O384        C402   1.275       .  A
O384       Cd393   2.068       .  S
O385        C399   1.278       .  A
O385       Cd389   2.084       .  S
O386        C397   1.278       .  A
O386       Cd389   2.086       .  S
Zn387       O398   2.038       .  S
Zn387       O400   2.007       .  S
Zn387       O392   1.929       .  S
O388        C399   1.279       .  A
O388       Cd393   2.080       .  S
Cd389       O391   2.074       .  S
Cd389       O392   1.990       .  S
Cd390       O394   2.081       .  S
Cd390       O403   2.083       .  S
Cd390       O392   2.008       .  S
O391        C401   1.276       .  A
O392       Cd393   1.987       .  S
Cd393       O395   2.068       .  S
O394        C401   1.275       .  A
C396        O400   1.275       .  A
C396        C968   1.475       .  S
C397        C998   1.494       .  S
C399        C978   1.493       .  S
C401       C1011   1.472       .  S
C402        O403   1.276       .  A
C402        C958   1.470       .  S
C404       C1141   1.483       .  S
C404        N405   1.367       .  A
C404        N409   1.369       .  A
N405        C406   1.360       .  A
C406        C948   1.490       .  S
C406        N407   1.349       .  A
N407        C408   1.351       .  A
C408        C971   1.491       .  S
C408        N409   1.365       .  A
C410       C1201   1.481       .  S
C410        N411   1.366       .  A
C410        N415   1.364       .  A
N411        C412   1.361       .  A
C412        C928   1.487       .  S
C412        N413   1.352       .  A
N413        C414   1.351       .  A
C414        C938   1.476       .  S
C414        N415   1.357       .  A
O416        C432   1.274       .  A
O416       Zn422   2.030       .  S
C417        O433   1.278       .  A
C417        O430   1.274       .  A
C417        C951   1.494       .  S
O418        C431   1.277       .  A
O418       Cd425   2.083       .  S
O419        C437   1.278       .  A
O419       Cd428   2.081       .  S
O420        C434   1.274       .  A
O420       Cd424   2.062       .  S
O421        C432   1.275       .  A
O421       Cd424   2.067       .  S
Zn422       O433   2.031       .  S
Zn422       O435   2.003       .  S
Zn422       O427   1.936       .  S
O423        C434   1.278       .  A
O423       Cd428   2.074       .  S
Cd424       O426   2.069       .  S
Cd424       O427   1.981       .  S
Cd425       O429   2.099       .  S
Cd425       O438   2.091       .  S
Cd425       O427   2.011       .  S
O426        C436   1.275       .  A
O427       Cd428   1.986       .  S
Cd428       O430   2.073       .  S
O429        C436   1.277       .  A
C431        O435   1.274       .  A
C431        C888   1.473       .  S
C432        C901   1.494       .  S
C434        C941   1.489       .  S
C436        C908   1.478       .  S
C437        O438   1.278       .  A
C437        C921   1.494       .  S
C439       C1241   1.487       .  S
C439        N440   1.366       .  A
C439        N444   1.366       .  A
N440        C441   1.360       .  A
C441        C961   1.472       .  S
C441        N442   1.351       .  A
N442        C443   1.352       .  A
C443       C1081   1.479       .  S
C443        N444   1.360       .  A
O445        C461   1.280       .  A
O445       Zn451   2.057       .  S
C446        O462   1.282       .  A
C446        O459   1.273       .  A
C446        C881   1.493       .  S
O447        C460   1.276       .  A
O447       Cd454   2.087       .  S
O448        C466   1.274       .  A
O448       Cd457   2.055       .  S
O449        C463   1.276       .  A
O449       Cd453   2.088       .  S
O450        C461   1.279       .  A
O450       Cd453   2.083       .  S
Zn451       O462   2.068       .  S
Zn451       O464   2.039       .  S
Zn451       O456   1.947       .  S
O452        C463   1.276       .  A
O452       Cd457   2.076       .  S
Cd453       O455   2.073       .  S
Cd453       O456   1.992       .  S
Cd454       O458   2.092       .  S
Cd454       O467   2.095       .  S
Cd454       O456   2.014       .  S
O455        C465   1.277       .  A
O456       Cd457   1.983       .  S
Cd457       O459   2.059       .  S
O458        C465   1.277       .  A
C460        O464   1.278       .  A
C460        C858   1.476       .  S
C461        C848   1.499       .  S
C463        C871   1.495       .  S
C465        C838   1.473       .  S
C466        O467   1.277       .  A
C466        C931   1.476       .  S
C468       C1661   1.495       .  S
C468        N469   1.368   1_556  A
C468        N473   1.370       .  A
N469        C470   1.363       .  A
C470        C878   1.480       .  S
C470        N471   1.351   1_554  A
N471        C472   1.353       .  A
C472        C828   1.488       .  S
C472        N473   1.365       .  A
O474        C490   1.275       .  A
O474       Zn480   2.018       .  S
C475        O491   1.278       .  A
C475        O488   1.273       .  A
C475        C818   1.492       .  S
O476        C489   1.278       .  A
O476       Cd483   2.106       .  S
O477        C495   1.274       .  A
O477       Cd486   2.046       .  S
O478        C492   1.277       .  A
O478       Cd482   2.093       .  S
O479        C490   1.277       .  A
O479       Cd482   2.082       .  S
Zn480       O491   2.036       .  S
Zn480       O493   2.010       .  S
Zn480       O485   1.929       .  S
O481        C492   1.275       .  A
O481       Cd486   2.067       .  S
Cd482       O484   2.060       .  S
Cd482       O485   1.995       .  S
Cd483       O487   2.091       .  S
Cd483       O496   2.102       .  S
Cd483       O485   2.023       .  S
O484        C494   1.274       .  A
O485       Cd486   1.983       .  S
Cd486       O488   2.066       .  S
O487        C494   1.277       .  A
C489        O493   1.275       .  A
C489        C791   1.487       .  S
C490        C768   1.495       .  S
C492        C798   1.496       .  S
C494        C781   1.469       .  S
C495        O496   1.278       .  A
C495        C808   1.473       .  S
C497       C1501   1.483       .  S
C497        N498   1.366       .  A
C497        N502   1.366   1_565  A
N498        C499   1.362       .  A
C499        C761   1.495       .  S
C499        N500   1.352   1_565  A
N500        C501   1.351       .  A
C501        C821   1.480       .  S
C501        N502   1.360       .  A
O503        C519   1.275       .  A
O503       Zn509   2.028       .  S
C504        O520   1.277       .  A
C504        O517   1.278       .  A
C504        C718   1.502       .  S
O505        C518   1.276       .  A
O505       Cd512   2.089       .  S
O506        C524   1.277       .  A
O506       Cd515   2.079       .  S
O507        C521   1.276       .  A
O507       Cd511   2.069       .  S
O508        C519   1.277       .  A
O508       Cd511   2.087       .  S
Zn509       O520   2.035       .  S
Zn509       O522   1.997       .  S
Zn509       O514   1.938       .  S
O510        C521   1.279       .  A
O510       Cd515   2.087       .  S
Cd511       O513   2.076       .  S
Cd511       O514   1.997       .  S
Cd512       O516   2.092       .  S
Cd512       O525   2.090       .  S
Cd512       O514   2.022       .  S
O513        C523   1.275       .  A
O514       Cd515   2.002       .  S
Cd515       O517   2.098       .  S
O516        C523   1.276       .  A
C518        O522   1.273       .  A
C518        C758   1.475       .  S
C519        C728   1.497       .  S
C521        C738   1.492       .  S
C523        C831   1.475       .  S
C524        O525   1.277       .  A
C524        C748   1.475       .  S
O526        C542   1.272       .  A
O526       Zn532   1.996       .  S
C527        O543   1.274       .  A
C527        O540   1.274       .  A
C527        C688   1.491       .  S
O528        C541   1.279       .  A
O528       Cd535   2.107       .  S
O529        C547   1.276       .  A
O529       Cd538   2.064       .  S
O530        C544   1.277       .  A
O530       Cd534   2.080       .  S
O531        C542   1.281       .  A
O531       Cd534   2.107       .  S
Zn532       O543   2.013       .  S
Zn532       O545   1.997       .  S
Zn532       O537   1.913       .  S
O533        C544   1.277       .  A
O533       Cd538   2.065       .  S
Cd534       O536   2.075       .  S
Cd534       O537   1.988       .  S
Cd535       O539   2.103       .  S
Cd535       O548   2.106       .  S
Cd535       O537   2.010       .  S
O536        C546   1.277       .  A
O537       Cd538   1.977       .  S
Cd538       O540   2.075       .  S
O539        C546   1.280       .  A
C541        O545   1.273       .  A
C541        C698   1.476       .  S
C542        C711   1.492       .  S
C544        C658   1.488       .  S
C546        C681   1.483       .  S
C547        O548   1.280       .  A
C547        C671   1.488       .  S
C549       C1261   1.491       .  S
C549        N550   1.367       .  A
C549        N554   1.368   1_655  A
N550        C551   1.363       .  A
C551        C751   1.483       .  S
C551        N552   1.353       .  A
N552        C553   1.351   1_655  A
C553        C708   1.480       .  S
C553        N554   1.363       .  A
C555       C1161   1.488       .  S
C555        N556   1.363       .  A
C555        N560   1.368       .  A
N556        C557   1.356       .  A
C557       C1128   1.469   1_655  S
C557        N558   1.351   1_655  A
N558        C559   1.356   1_455  A
C559        C701   1.490   1_655  S
C559        N560   1.364       .  A
C561       C1171   1.483       .  S
C561        N562   1.363       .  A
C561        N566   1.364       .  A
N562        C563   1.358       .  A
C563       C1108   1.479       .  S
C563        N564   1.353       .  A
N564        C565   1.356       .  A
C565        C691   1.487       .  S
C565        N566   1.362       .  A
C567       C1181   1.479       .  S
C567        N568   1.362       .  A
C567        N572   1.365       .  A
N568        C569   1.355       .  A
C569       C1068   1.473       .  S
C569        N570   1.351       .  A
N570        C571   1.355       .  A
C571        C811   1.489   1_565  S
C571        N572   1.362       .  A
C573       C1358   1.493       .  S
C573        N574   1.366       .  A
C573        N578   1.366   1_455  A
N574        C575   1.360       .  A
C575       C1101   1.485       .  S
C575        N576   1.353       .  A
N576        C577   1.356   1_455  A
C577        C778   1.486       .  S
C577        N578   1.363       .  A
C579       C1381   1.471   1_455  S
C579        N580   1.361       .  A
C579        N584   1.362   1_455  A
N580        C581   1.359       .  A
C581       C1091   1.476       .  S
C581        N582   1.356       .  A
N582        C583   1.354   1_455  A
C583        C771   1.481       .  S
C583        N584   1.361       .  A
C585       C1188   1.506       .  S
C585        N586   1.370       .  A
C585        N590   1.370       .  A
N586        C587   1.364       .  A
C587        C868   1.486       .  S
C587        N588   1.353       .  A
N588        C589   1.351       .  A
C589        C918   1.479       .  S
C589        N590   1.363       .  A
C591       C1471   1.494       .  S
C591        N592   1.368   1_565  A
C591        N596   1.370       .  A
N592        C593   1.362       .  A
C593       C1031   1.488       .  S
C593        N594   1.353   1_545  A
N594        C595   1.351       .  A
C595        C851   1.487       .  S
C595        N596   1.365       .  A
C597       C1431   1.484       .  S
C597        N598   1.370       .  A
C597        N602   1.362   1_554  A
N598        C599   1.367       .  A
C599        C911   1.490       .  S
C599        N600   1.354       .  A
N600        C601   1.350   1_554  A
C601        C661   1.480       .  S
C601        N602   1.354       .  A
C603       C1151   1.482       .  S
C603        N604   1.363       .  A
C603        N608   1.366       .  A
N604        C605   1.357       .  A
C605       C1038   1.468       .  S
C605        N606   1.351       .  A
N606        C607   1.354       .  A
C607        C801   1.491       .  S
C607        N608   1.363       .  A
C609       C1648   1.484       .  S
C609        N610   1.363       .  A
C609        N614   1.368       .  A
N610        C611   1.356       .  A
C611        C891   1.465       .  S
C611        N612   1.350       .  A
N612        C613   1.354       .  A
C613        C988   1.487       .  S
C613        N614   1.364       .  A
C615       C1451   1.493       .  S
C615        N616   1.370   1_556  A
C615        N620   1.369       .  A
N616        C617   1.364       .  A
C617        C898   1.493       .  S
C617        N618   1.351   1_554  A
N618        C619   1.347       .  A
C619        C668   1.473       .  S
C619        N620   1.361       .  A
C621       C1401   1.482       .  S
C621        N622   1.365   1_545  A
C621        N626   1.361       .  A
N622        C623   1.363       .  A
C623        C841   1.480       .  S
C623        N624   1.356   1_565  A
N624        C625   1.355       .  A
C625       C1021   1.483       .  S
C625        N626   1.356       .  A
C627       C1531   1.490       .  S
C627        N628   1.366       .  A
C627        N632   1.366       .  A
N628        C629   1.361       .  A
C629       C1051   1.473       .  S
C629        N630   1.354       .  A
N630        C631   1.355       .  A
C631       C1001   1.482       .  S
C631        N632   1.362       .  A
C633       C1251   1.476       .  S
C633        N634   1.363       .  A
C633        N638   1.365       .  A
N634        C635   1.358       .  A
C635       C1121   1.480       .  S
C635        N636   1.353       .  A
N636        C637   1.352       .  A
C637        C981   1.480       .  S
C637        N638   1.360       .  A
C639       C1231   1.488       .  S
C639        N640   1.365       .  A
C639        N644   1.364       .  A
N640        C641   1.360       .  A
C641        C678   1.472       .  S
C641        N642   1.353       .  A
N642        C643   1.354       .  A
C643        C741   1.478   1_455  S
C643        N644   1.360       .  A
C645       C1211   1.491       .  S
C645        N646   1.367       .  A
C645        N650   1.366   1_554  A
N646        C647   1.362       .  A
C647        C861   1.485   1_545  S
C647        N648   1.354   1_545  A
N648        C649   1.354   1_564  A
C649        C731   1.488   1_545  S
C649        N650   1.362       .  A
C651       C1221   1.500       .  S
C651        N652   1.374       .  A
C651        N656   1.371   1_545  A
N652        C653   1.368       .  A
C653        C788   1.506   1_455  S
C653        N654   1.351   1_455  A
N654        C655   1.349   1_645  A
C655        C721   1.496   1_455  S
C655        N656   1.364       .  A
C657        C658   1.409       .  A
C657        C662   1.395       .  A
C657        F664   1.358       .  S
C658        C659   1.413       .  A
C659        C660   1.402       .  A
C659        F666   1.358       .  S
C660        C661   1.406       .  A
C660        F665   1.358       .  S
C661        C662   1.407       .  A
C662        F663   1.358       .  S
C667        C668   1.402       .  A
C667        C672   1.395       .  A
C667        F674   1.359       .  S
C668        C669   1.407       .  A
C669        C670   1.409       .  A
C669        F676   1.357       .  S
C670        C671   1.410       .  A
C670        F675   1.357       .  S
C671        C672   1.409       .  A
C672        F673   1.358       .  S
C677        C678   1.406   1_556  A
C677        C682   1.404       .  A
C677        F684   1.358   1_556  S
C678        C679   1.401   1_554  A
C679        C680   1.400       .  A
C679        F686   1.358   1_556  S
C680        C681   1.410       .  A
C680        F685   1.358       .  S
C681        C682   1.406       .  A
C682        F683   1.357       .  S
C687        C688   1.409       .  A
C687        C692   1.395       .  A
C687        F694   1.358       .  S
C688        C689   1.413       .  A
C689        C690   1.404       .  A
C689        F696   1.358       .  S
C690        C691   1.407       .  A
C690        F695   1.357       .  S
C691        C692   1.409       .  A
C692        F693   1.358       .  S
C697        C698   1.407       .  A
C697        C702   1.408       .  A
C697        F704   1.358       .  S
C698        C699   1.401       .  A
C699        C700   1.395       .  A
C699        F706   1.358       .  S
C700        C701   1.412       .  A
C700        F705   1.358       .  S
C701        C702   1.410       .  A
C702        F703   1.357   1_455  S
C707        C708   1.401       .  A
C707        C712   1.402       .  A
C707        F714   1.358       .  S
C708        C709   1.409       .  A
C709        C710   1.401       .  A
C709        F716   1.358       .  S
C710        C711   1.407       .  A
C710        F715   1.358       .  S
C711        C712   1.417       .  A
C712        F713   1.358       .  S
C717        C718   1.411       .  A
C717        C722   1.399       .  A
C717        F724   1.358       .  S
C718        C719   1.415       .  A
C719        C720   1.409   1_655  A
C719        F726   1.357   1_655  S
C720        C721   1.406   1_455  A
C720        F725   1.357       .  S
C721        C722   1.413       .  A
C722        F723   1.359   1_565  S
C727        C728   1.411       .  A
C727        C732   1.400       .  A
C727        F734   1.358       .  S
C728        C729   1.415       .  A
C729        C730   1.403   1_565  A
C729        F736   1.357       .  S
C730        C731   1.405   1_545  A
C730        F735   1.357       .  S
C731        C732   1.410       .  A
C732        F733   1.359   1_556  S
C737        C738   1.410       .  A
C737        C742   1.400       .  A
C737        F744   1.358       .  S
C738        C739   1.415       .  A
C739        C740   1.401   1_556  A
C739        F746   1.358       .  S
C740        C741   1.403       .  A
C740        F745   1.358       .  S
C741        C742   1.406   1_554  A
C742        F743   1.358   1_655  S
C747        C748   1.402       .  A
C747        C752   1.397       .  A
C747        F754   1.358       .  S
C748        C749   1.406       .  A
C749        C750   1.406       .  A
C749        F756   1.357       .  S
C750        C751   1.407       .  A
C750        F755   1.357       .  S
C751        C752   1.411       .  A
C752        F753   1.359       .  S
C757        C758   1.406       .  A
C757        C762   1.406       .  A
C757        F764   1.358       .  S
C758        C759   1.400       .  A
C759        C760   1.391       .  A
C759        F766   1.359       .  S
C760        C761   1.416       .  A
C760        F765   1.358       .  S
C761        C762   1.414       .  A
C762        F763   1.357       .  S
C767        C768   1.415       .  A
C767        C772   1.401       .  A
C767        F774   1.358       .  S
C768        C769   1.411       .  A
C769        C770   1.400       .  A
C769        F776   1.358       .  S
C770        C771   1.407       .  A
C770        F775   1.358       .  S
C771        C772   1.403       .  A
C772        F773   1.358       .  S
C777        C778   1.410       .  A
C777        C782   1.394       .  A
C777        F784   1.358   1_655  S
C778        C779   1.410       .  A
C779        C780   1.407       .  A
C779        F786   1.357       .  S
C780        C781   1.405       .  A
C780        F785   1.358       .  S
C781        C782   1.399       .  A
C782        F783   1.358       .  S
C787        C788   1.419       .  A
C787        C792   1.393       .  A
C787        F794   1.358       .  S
C788        C789   1.413   1_655  A
C789        C790   1.414   1_455  A
C789        F796   1.357       .  S
C790        C791   1.410       .  A
C790        F795   1.357       .  S
C791        C792   1.400       .  A
C792        F793   1.359       .  S
C797        C798   1.411       .  A
C797        C802   1.397       .  A
C797        F804   1.358       .  S
C798        C799   1.413       .  A
C799        C800   1.405       .  A
C799        F806   1.357       .  S
C800        C801   1.408       .  A
C800        F805   1.357       .  S
C801        C802   1.411       .  A
C802        F803   1.359       .  S
C807        C808   1.406       .  A
C807        C812   1.407   1_545  A
C807        F814   1.357       .  S
C808        C809   1.400       .  A
C809        C810   1.391       .  A
C809        F816   1.359       .  S
C810        C811   1.412       .  A
C810        F815   1.358       .  S
C811        C812   1.412   1_545  A
C812        F813   1.357       .  S
C817        C818   1.416       .  A
C817        C822   1.405       .  A
C817        F824   1.358       .  S
C818        C819   1.408       .  A
C819        C820   1.396       .  A
C819        F826   1.358       .  S
C820        C821   1.407       .  A
C820        F825   1.358       .  S
C821        C822   1.403       .  A
C822        F823   1.358       .  S
C827        C828   1.413       .  A
C827        C832   1.398       .  A
C827        F834   1.359       .  S
C828        C829   1.408       .  A
C829        C830   1.406       .  A
C829        F836   1.357       .  S
C830        C831   1.406       .  A
C830        F835   1.357       .  S
C831        C832   1.400       .  A
C832        F833   1.358       .  S
C837        C838   1.401       .  A
C837        C842   1.399       .  A
C837        F844   1.358       .  S
C838        C839   1.407       .  A
C839        C840   1.405       .  A
C839        F846   1.358       .  S
C840        C841   1.407       .  A
C840        F845   1.358       .  S
C841        C842   1.408       .  A
C842        F843   1.358   1_565  S
C847        C848   1.414       .  A
C847        C852   1.408       .  A
C847        F854   1.357       .  S
C848        C849   1.411       .  A
C849        C850   1.400       .  A
C849        F856   1.358       .  S
C850        C851   1.408       .  A
C850        F855   1.359       .  S
C851        C852   1.406       .  A
C852        F853   1.357       .  S
C857        C858   1.401       .  A
C857        C862   1.398       .  A
C857        F864   1.358       .  S
C858        C859   1.407       .  A
C859        C860   1.406   1_565  A
C859        F866   1.358       .  S
C860        C861   1.407   1_545  A
C860        F865   1.358       .  S
C861        C862   1.410       .  A
C862        F863   1.358   1_554  S
C867        C868   1.408       .  A
C867        C872   1.398       .  A
C867        F874   1.358       .  S
C868        C869   1.405       .  A
C869        C870   1.408       .  A
C869        F876   1.357       .  S
C870        C871   1.415       .  A
C870        F875   1.358       .  S
C871        C872   1.409       .  A
C872        F873   1.358       .  S
C877        C878   1.401       .  A
C877        C882   1.403       .  A
C877        F884   1.358       .  S
C878        C879   1.408       .  A
C879        C880   1.402       .  A
C879        F886   1.358       .  S
C880        C881   1.407       .  A
C880        F885   1.358       .  S
C881        C882   1.416       .  A
C882        F883   1.358       .  S
C887        C888   1.404       .  A
C887        C892   1.400       .  A
C887        F894   1.357       .  S
C888        C889   1.408       .  A
C889        C890   1.398       .  A
C889        F896   1.359       .  S
C890        C891   1.402       .  A
C890        F895   1.358       .  S
C891        C892   1.404       .  A
C892        F893   1.357       .  S
C897        C898   1.414       .  A
C897        C902   1.392       .  A
C897        F904   1.359   1_554  S
C898        C899   1.408       .  A
C899        C900   1.408       .  A
C899        F906   1.357       .  S
C900        C901   1.415       .  A
C900        F905   1.357       .  S
C901        C902   1.408       .  A
C902        F903   1.358       .  S
C907        C908   1.409       .  A
C907        C912   1.410       .  A
C907        F914   1.357       .  S
C908        C909   1.400       .  A
C909        C910   1.394       .  A
C909        F916   1.358       .  S
C910        C911   1.412       .  A
C910        F915   1.359       .  S
C911        C912   1.409       .  A
C912        F913   1.357       .  S
C917        C918   1.403       .  A
C917        C922   1.398       .  A
C917        F924   1.358       .  S
C918        C919   1.405       .  A
C919        C920   1.408       .  A
C919        F926   1.357       .  S
C920        C921   1.413       .  A
C920        F925   1.358       .  S
C921        C922   1.411       .  A
C922        F923   1.358       .  S
C927        C928   1.411   1_554  A
C927        C932   1.392       .  A
C927        F934   1.358       .  S
C928        C929   1.410       .  A
C929        C930   1.407   1_556  A
C929        F936   1.358       .  S
C930        C931   1.407       .  A
C930        F935   1.358   1_554  S
C931        C932   1.401       .  A
C932        F933   1.359       .  S
C937        C938   1.404       .  A
C937        C942   1.402   1_556  A
C937        F944   1.358       .  S
C938        C939   1.406   1_556  A
C939        C940   1.393       .  A
C939        F946   1.358       .  S
C940        C941   1.409       .  A
C940        F945   1.358       .  S
C941        C942   1.415       .  A
C942        F943   1.358   1_554  S
C947        C948   1.407       .  A
C947        C952   1.406       .  A
C947        F954   1.358       .  S
C948        C949   1.411       .  A
C949        C950   1.395       .  A
C949        F956   1.359       .  S
C950        C951   1.408       .  A
C950        F955   1.358       .  S
C951        C952   1.415       .  A
C952        F953   1.358       .  S
C957        C958   1.406       .  A
C957        C962   1.400       .  A
C957        F964   1.358       .  S
C958        C959   1.401       .  A
C959        C960   1.400       .  A
C959        F966   1.358       .  S
C960        C961   1.408       .  A
C960        F965   1.358       .  S
C961        C962   1.403       .  A
C962        F963   1.358       .  S
C967        C968   1.408       .  A
C967        C972   1.408       .  A
C967        F974   1.357       .  S
C968        C969   1.400       .  A
C969        C970   1.393       .  A
C969        F976   1.359       .  S
C970        C971   1.414       .  A
C970        F975   1.359       .  S
C971        C972   1.409       .  A
C972        F973   1.357       .  S
C977        C978   1.414       .  A
C977        C982   1.404       .  A
C977        F984   1.357       .  S
C978        C979   1.410       .  A
C979        C980   1.398       .  A
C979        F986   1.358       .  S
C980        C981   1.406       .  A
C980        F985   1.359       .  S
C981        C982   1.404       .  A
C982        F983   1.358       .  S
C987        C988   1.405       .  A
C987        C992   1.405       .  A
C987        F994   1.358       .  S
C988        C989   1.410       .  A
C989        C990   1.397       .  A
C989        F996   1.358       .  S
C990        C991   1.408       .  A
C990        F995   1.358       .  S
C991        C992   1.416       .  A
C992        F993   1.358       .  S
C997        C998   1.414       .  A
C997       C1002   1.404       .  A
C997       F1004   1.358       .  S
C998        C999   1.410       .  A
C999       C1000   1.402       .  A
C999       F1006   1.358       .  S
C1000      C1001   1.407       .  A
C1000      F1005   1.358       .  S
C1001      C1002   1.403       .  A
C1002      F1003   1.358       .  S
C1007      C1008   1.407       .  A
C1007      C1012   1.404       .  A
C1007      F1014   1.357       .  S
C1008      C1009   1.410       .  A
C1009      C1010   1.395       .  A
C1009      F1016   1.359       .  S
C1010      C1011   1.401       .  A
C1010      F1015   1.358       .  S
C1011      C1012   1.406       .  A
C1012      F1013   1.357       .  S
C1017      C1018   1.410       .  A
C1017      C1022   1.395       .  A
C1017      F1024   1.358       .  S
C1018      C1019   1.412       .  A
C1019      C1020   1.401       .  A
C1019      F1026   1.358       .  S
C1020      C1021   1.408       .  A
C1020      F1025   1.358       .  S
C1021      C1022   1.407       .  A
C1022      F1023   1.358   1_545  S
C1027      C1028   1.399       .  A
C1027      C1032   1.393       .  A
C1027      F1034   1.358       .  S
C1028      C1029   1.408       .  A
C1029      C1030   1.409       .  A
C1029      F1036   1.358       .  S
C1030      C1031   1.410       .  A
C1030      F1035   1.357       .  S
C1031      C1032   1.411       .  A
C1032      F1033   1.358       .  S
C1037      C1038   1.404       .  A
C1037      C1042   1.403       .  A
C1037      F1044   1.357       .  S
C1038      C1039   1.401       .  A
C1039      C1040   1.395       .  A
C1039      F1046   1.358       .  S
C1040      C1041   1.410       .  A
C1040      F1045   1.359       .  S
C1041      C1042   1.409       .  A
C1042      F1043   1.357       .  S
C1047      C1048   1.407       .  A
C1047      C1052   1.398       .  A
C1047      F1054   1.358       .  S
C1048      C1049   1.407       .  A
C1049      C1050   1.406       .  A
C1049      F1056   1.358       .  S
C1050      C1051   1.406       .  A
C1050      F1055   1.357       .  S
C1051      C1052   1.402       .  A
C1052      F1053   1.358       .  S
C1057      C1058   1.407       .  A
C1057      C1062   1.399       .  A
C1057      F1064   1.358       .  S
C1058      C1059   1.415       .  A
C1059      C1060   1.397       .  A
C1059      F1066   1.358       .  S
C1060      C1061   1.401       .  A
C1060      F1065   1.358       .  S
C1061      C1062   1.408       .  A
C1062      F1063   1.358       .  S
C1067      C1068   1.403       .  A
C1067      C1072   1.399   1_565  A
C1067      F1074   1.358       .  S
C1068      C1069   1.405   1_565  A
C1069      C1070   1.396       .  A
C1069      F1076   1.358       .  S
C1070      C1071   1.408       .  A
C1070      F1075   1.358       .  S
C1071      C1072   1.413       .  A
C1072      F1073   1.358       .  S
C1077      C1078   1.406       .  A
C1077      C1082   1.404       .  A
C1077      F1084   1.358       .  S
C1078      C1079   1.399       .  A
C1079      C1080   1.395       .  A
C1079      F1086   1.358       .  S
C1080      C1081   1.410       .  A
C1080      F1085   1.358       .  S
C1081      C1082   1.407       .  A
C1082      F1083   1.358       .  S
C1087      C1088   1.409       .  A
C1087      C1092   1.393       .  A
C1087      F1094   1.358       .  S
C1088      C1089   1.413       .  A
C1089      C1090   1.403       .  A
C1089      F1096   1.358       .  S
C1090      C1091   1.405       .  A
C1090      F1095   1.358       .  S
C1091      C1092   1.404       .  A
C1092      F1093   1.358       .  S
C1097      C1098   1.402       .  A
C1097      C1102   1.400       .  A
C1097      F1104   1.358       .  S
C1098      C1099   1.405       .  A
C1099      C1100   1.404       .  A
C1099      F1106   1.358       .  S
C1100      C1101   1.408       .  A
C1100      F1105   1.357       .  S
C1101      C1102   1.411       .  A
C1102      F1103   1.358   1_455  S
C1107      C1108   1.406       .  A
C1107      C1112   1.398       .  A
C1107      F1114   1.358       .  S
C1108      C1109   1.403       .  A
C1109      C1110   1.401       .  A
C1109      F1116   1.358       .  S
C1110      C1111   1.415       .  A
C1110      F1115   1.358       .  S
C1111      C1112   1.410       .  A
C1112      F1113   1.358       .  S
C1117      C1118   1.408       .  A
C1117      C1122   1.392       .  A
C1117      F1124   1.358       .  S
C1118      C1119   1.414       .  A
C1119      C1120   1.403       .  A
C1119      F1126   1.358       .  S
C1120      C1121   1.406       .  A
C1120      F1125   1.358       .  S
C1121      C1122   1.407       .  A
C1122      F1123   1.358       .  S
C1127      C1128   1.407       .  A
C1127      C1132   1.402       .  A
C1127      F1134   1.358       .  S
C1128      C1129   1.402       .  A
C1129      C1130   1.397       .  A
C1129      F1136   1.358   1_455  S
C1130      C1131   1.405       .  A
C1130      F1135   1.358       .  S
C1131      C1132   1.403       .  A
C1132      F1133   1.358       .  S
C1137      C1138   1.412       .  A
C1137      C1142   1.401       .  A
C1137      F1144   1.357       .  S
C1138      C1139   1.414       .  A
C1139      C1140   1.408       .  A
C1139      F1146   1.358       .  S
C1140      C1141   1.406       .  A
C1140      F1145   1.358       .  S
C1141      C1142   1.403       .  A
C1142      F1143   1.358       .  S
C1147      C1148   1.407       .  A
C1147      C1152   1.400       .  A
C1147      F1154   1.358       .  S
C1148      C1149   1.408       .  A
C1149      C1150   1.404       .  A
C1149      F1156   1.358       .  S
C1150      C1151   1.407       .  A
C1150      F1155   1.358       .  S
C1151      C1152   1.406       .  A
C1152      F1153   1.358       .  S
C1157      C1158   1.407       .  A
C1157      C1162   1.404       .  A
C1157      F1164   1.357       .  S
C1158      C1159   1.407       .  A
C1159      C1160   1.403       .  A
C1159      F1166   1.358       .  S
C1160      C1161   1.410       .  A
C1160      F1165   1.358       .  S
C1161      C1162   1.408       .  A
C1162      F1163   1.357       .  S
C1167      C1168   1.407       .  A
C1167      C1172   1.403       .  A
C1167      F1174   1.357       .  S
C1168      C1169   1.409       .  A
C1169      C1170   1.401       .  A
C1169      F1176   1.358       .  S
C1170      C1171   1.407       .  A
C1170      F1175   1.358       .  S
C1171      C1172   1.407       .  A
C1172      F1173   1.358       .  S
C1177      C1178   1.408       .  A
C1177      C1182   1.398       .  A
C1177      F1184   1.358       .  S
C1178      C1179   1.406       .  A
C1179      C1180   1.402       .  A
C1179      F1186   1.357       .  S
C1180      C1181   1.407       .  A
C1180      F1185   1.357       .  S
C1181      C1182   1.406       .  A
C1182      F1183   1.359       .  S
C1187      C1188   1.414       .  A
C1187      C1192   1.407       .  A
C1187      F1194   1.357       .  S
C1188      C1189   1.414       .  A
C1189      C1190   1.408       .  A
C1189      F1196   1.357       .  S
C1190      C1191   1.407       .  A
C1190      F1195   1.358       .  S
C1191      C1192   1.407       .  A
C1192      F1193   1.358       .  S
C1197      C1198   1.406       .  A
C1197      C1202   1.400       .  A
C1197      F1204   1.358       .  S
C1198      C1199   1.404       .  A
C1199      C1200   1.399       .  A
C1199      F1206   1.358       .  S
C1200      C1201   1.408       .  A
C1200      F1205   1.358       .  S
C1201      C1202   1.407       .  A
C1202      F1203   1.358       .  S
C1207      C1208   1.408       .  A
C1207      C1212   1.406       .  A
C1207      F1214   1.358       .  S
C1208      C1209   1.409   1_554  A
C1209      C1210   1.401       .  A
C1209      F1216   1.358       .  S
C1210      C1211   1.408   1_556  A
C1210      F1215   1.358       .  S
C1211      C1212   1.411       .  A
C1212      F1213   1.358       .  S
C1217      C1218   1.413       .  A
C1217      C1222   1.410       .  A
C1217      F1224   1.358       .  S
C1218      C1219   1.411   1_545  A
C1219      C1220   1.410       .  A
C1219      F1226   1.357       .  S
C1220      C1221   1.410   1_565  A
C1220      F1225   1.358       .  S
C1221      C1222   1.408       .  A
C1222      F1223   1.358       .  S
C1227      C1228   1.406   1_655  A
C1227      C1232   1.400       .  A
C1227      F1234   1.358       .  S
C1228      C1229   1.405       .  A
C1229      C1230   1.402       .  A
C1229      F1236   1.358       .  S
C1230      C1231   1.410       .  A
C1230      F1235   1.357       .  S
C1231      C1232   1.410   1_455  A
C1232      F1233   1.358       .  S
C1237      C1238   1.404       .  A
C1237      C1242   1.400       .  A
C1237      F1244   1.358       .  S
C1238      C1239   1.405       .  A
C1239      C1240   1.404       .  A
C1239      F1246   1.358       .  S
C1240      C1241   1.410       .  A
C1240      F1245   1.358       .  S
C1241      C1242   1.409       .  A
C1242      F1243   1.358       .  S
C1247      C1248   1.409       .  A
C1247      C1252   1.399       .  A
C1247      F1254   1.358       .  S
C1248      C1249   1.409       .  A
C1249      C1250   1.400       .  A
C1249      F1256   1.358       .  S
C1250      C1251   1.405       .  A
C1250      F1255   1.358       .  S
C1251      C1252   1.404       .  A
C1252      F1253   1.358       .  S
C1257      C1258   1.409       .  A
C1257      C1262   1.404       .  A
C1257      F1264   1.358       .  S
C1258      C1259   1.408       .  A
C1259      C1260   1.406       .  A
C1259      F1266   1.358       .  S
C1260      C1261   1.409       .  A
C1260      F1265   1.358       .  S
C1261      C1262   1.408       .  A
C1262      F1263   1.358       .  S
C1267      C1268   1.408       .  A
C1267      C1272   1.395       .  A
C1267      F1274   1.358       .  S
C1268      C1269   1.407   1_565  A
C1269      C1270   1.401   1_545  A
C1269      F1276   1.358       .  S
C1270      C1271   1.412       .  A
C1270      F1275   1.358       .  S
C1271      C1272   1.410       .  A
C1272      F1273   1.358       .  S
C1277      C1278   1.404       .  A
C1277      C1282   1.405       .  A
C1277      F1284   1.358       .  S
C1278      C1279   1.407       .  A
C1279      C1280   1.398       .  A
C1279      F1286   1.358   1_455  S
C1280      C1281   1.411       .  A
C1280      F1285   1.358       .  S
C1281      C1282   1.416       .  A
C1282      F1283   1.357       .  S
C1287      C1288   1.410       .  A
C1287      C1292   1.405       .  A
C1287      F1294   1.357       .  S
C1288      C1289   1.412       .  A
C1289      C1290   1.389       .  A
C1289      F1296   1.358       .  S
C1290      C1291   1.398       .  A
C1290      F1295   1.359       .  S
C1291      C1292   1.406       .  A
C1292      F1293   1.358       .  S
C1297      C1298   1.410       .  A
C1297      C1302   1.406       .  A
C1297      F1304   1.357       .  S
C1298      C1299   1.413       .  A
C1299      C1300   1.395       .  A
C1299      F1306   1.358       .  S
C1300      C1301   1.398       .  A
C1300      F1305   1.358       .  S
C1301      C1302   1.406       .  A
C1302      F1303   1.358       .  S
C1307      C1308   1.401       .  A
C1307      C1312   1.397       .  A
C1307      F1314   1.358       .  S
C1308      C1309   1.411       .  A
C1309      C1310   1.416       .  A
C1309      F1316   1.357       .  S
C1310      C1311   1.411       .  A
C1310      F1315   1.357       .  S
C1311      C1312   1.414       .  A
C1312      F1313   1.358       .  S
C1317      C1318   1.410       .  A
C1317      C1322   1.397       .  A
C1317      F1324   1.358       .  S
C1318      C1319   1.415       .  A
C1319      C1320   1.399   1_565  A
C1319      F1326   1.358       .  S
C1320      C1321   1.402   1_545  A
C1320      F1325   1.358       .  S
C1321      C1322   1.404       .  A
C1322      F1323   1.358       .  S
C1327      C1328   1.414       .  A
C1327      C1332   1.407       .  A
C1327      F1334   1.358       .  S
C1328      C1329   1.409       .  A
C1329      C1330   1.399       .  A
C1329      F1336   1.358       .  S
C1330      C1331   1.413       .  A
C1330      F1335   1.358       .  S
C1331      C1332   1.409       .  A
C1332      F1333   1.357       .  S
C1337      C1338   1.400       .  A
C1337      C1342   1.395       .  A
C1337      F1344   1.358       .  S
C1338      C1339   1.404       .  A
C1339      C1340   1.401       .  A
C1339      F1346   1.358       .  S
C1340      C1341   1.406       .  A
C1340      F1345   1.358       .  S
C1341      C1342   1.408       .  A
C1342      F1343   1.358       .  S
C1347      C1348   1.409       .  A
C1347      C1352   1.405       .  A
C1347      F1354   1.357       .  S
C1348      C1349   1.409       .  A
C1349      C1350   1.394       .  A
C1349      F1356   1.359       .  S
C1350      C1351   1.400       .  A
C1350      F1355   1.358       .  S
C1351      C1352   1.404       .  A
C1352      F1353   1.357       .  S
C1357      C1358   1.412       .  A
C1357      C1362   1.408       .  A
C1357      F1364   1.358       .  S
C1358      C1359   1.409       .  A
C1359      C1360   1.400       .  A
C1359      F1366   1.358       .  S
C1360      C1361   1.407       .  A
C1360      F1365   1.358       .  S
C1361      C1362   1.407       .  A
C1362      F1363   1.357       .  S
C1367      C1368   1.400       .  A
C1367      C1372   1.394       .  A
C1367      F1374   1.359       .  S
C1368      C1369   1.409       .  A
C1369      C1370   1.412       .  A
C1369      F1376   1.357       .  S
C1370      C1371   1.413       .  A
C1370      F1375   1.357       .  S
C1371      C1372   1.419       .  A
C1372      F1373   1.358       .  S
C1377      C1378   1.416       .  A
C1377      C1382   1.402       .  A
C1377      F1384   1.358       .  S
C1378      C1379   1.415   1_655  A
C1379      C1380   1.400       .  A
C1379      F1386   1.357       .  S
C1380      C1381   1.399   1_455  A
C1380      F1385   1.358       .  S
C1381      C1382   1.401       .  A
C1382      F1383   1.358       .  S
C1387      C1388   1.409       .  A
C1387      C1392   1.397       .  A
C1387      F1394   1.358       .  S
C1388      C1389   1.415       .  A
C1389      C1390   1.403   1_554  A
C1389      F1396   1.358       .  S
C1390      C1391   1.404       .  A
C1390      F1395   1.358       .  S
C1391      C1392   1.407   1_556  A
C1392      F1393   1.358   1_455  S
C1397      C1398   1.412   1_545  A
C1397      C1402   1.405       .  A
C1397      F1404   1.357       .  S
C1398      C1399   1.410       .  A
C1399      C1400   1.398       .  A
C1399      F1406   1.358       .  S
C1400      C1401   1.406   1_565  A
C1400      F1405   1.358       .  S
C1401      C1402   1.406       .  A
C1402      F1403   1.358       .  S
C1407      C1408   1.405       .  A
C1407      C1412   1.408       .  A
C1407      F1414   1.358       .  S
C1408      C1409   1.401       .  A
C1409      C1410   1.393       .  A
C1409      F1416   1.358   1_565  S
C1410      C1411   1.411       .  A
C1410      F1415   1.358       .  S
C1411      C1412   1.414       .  A
C1412      F1413   1.358       .  S
C1417      C1418   1.414       .  A
C1417      C1422   1.409       .  A
C1417      F1424   1.357       .  S
C1418      C1419   1.416       .  A
C1419      C1420   1.392       .  A
C1419      F1426   1.358       .  S
C1420      C1421   1.401       .  A
C1420      F1425   1.359       .  S
C1421      C1422   1.407       .  A
C1422      F1423   1.357       .  S
C1427      C1428   1.407       .  A
C1427      C1432   1.406       .  A
C1427      F1434   1.357       .  S
C1428      C1429   1.404       .  A
C1429      C1430   1.398       .  A
C1429      F1436   1.358   1_554  S
C1430      C1431   1.409       .  A
C1430      F1435   1.358   1_554  S
C1431      C1432   1.408       .  A
C1432      F1433   1.357       .  S
C1437      C1438   1.406   1_545  A
C1437      C1442   1.397       .  A
C1437      F1444   1.358   1_554  S
C1438      C1439   1.406       .  A
C1439      C1440   1.402   1_565  A
C1439      F1446   1.358       .  S
C1440      C1441   1.413       .  A
C1440      F1445   1.358   1_545  S
C1441      C1442   1.410       .  A
C1442      F1443   1.358       .  S
C1447      C1448   1.408       .  A
C1447      C1452   1.407       .  A
C1447      F1454   1.358       .  S
C1448      C1449   1.408       .  A
C1449      C1450   1.403       .  A
C1449      F1456   1.358   1_556  S
C1450      C1451   1.408       .  A
C1450      F1455   1.358   1_556  S
C1451      C1452   1.410       .  A
C1452      F1453   1.358       .  S
C1457      C1458   1.408       .  A
C1457      C1462   1.402       .  A
C1457      F1464   1.358       .  S
C1458      C1459   1.403       .  A
C1459      C1460   1.403       .  A
C1459      F1466   1.358       .  S
C1460      C1461   1.408       .  A
C1460      F1465   1.358       .  S
C1461      C1462   1.402       .  A
C1462      F1463   1.358       .  S
C1467      C1468   1.407   1_545  A
C1467      C1472   1.404       .  A
C1467      F1474   1.358       .  S
C1468      C1469   1.409       .  A
C1469      C1470   1.408       .  A
C1469      F1476   1.358       .  S
C1470      C1471   1.410       .  A
C1470      F1475   1.358       .  S
C1471      C1472   1.409   1_565  A
C1472      F1473   1.358       .  S
C1477      C1478   1.416       .  A
C1477      C1482   1.405   1_455  A
C1477      F1484   1.357   1_455  S
C1478      C1479   1.409       .  A
C1479      C1480   1.399       .  A
C1479      F1486   1.358       .  S
C1480      C1481   1.411   1_455  A
C1480      F1485   1.359   1_565  S
C1481      C1482   1.405       .  A
C1482      F1483   1.357       .  S
C1487      C1488   1.409   1_455  A
C1487      C1492   1.397       .  A
C1487      F1494   1.358   1_545  S
C1488      C1489   1.404       .  A
C1489      C1490   1.404   1_655  A
C1489      F1496   1.357       .  S
C1490      C1491   1.416       .  A
C1490      F1495   1.358   1_455  S
C1491      C1492   1.409       .  A
C1492      F1493   1.358       .  S
C1497      C1498   1.409       .  A
C1497      C1502   1.404       .  A
C1497      F1504   1.358       .  S
C1498      C1499   1.411       .  A
C1499      C1500   1.401       .  A
C1499      F1506   1.358       .  S
C1500      C1501   1.405       .  A
C1500      F1505   1.358   1_565  S
C1501      C1502   1.407       .  A
C1502      F1503   1.358       .  S
C1507      C1508   1.406       .  A
C1507      C1512   1.395       .  A
C1507      F1514   1.359   1_565  S
C1508      C1509   1.404       .  A
C1509      C1510   1.404       .  A
C1509      F1516   1.358       .  S
C1510      C1511   1.415       .  A
C1510      F1515   1.358       .  S
C1511      C1512   1.410       .  A
C1512      F1513   1.358       .  S
C1517      C1518   1.407       .  A
C1517      C1522   1.404       .  A
C1517      F1524   1.358       .  S
C1518      C1519   1.405       .  A
C1519      C1520   1.399       .  A
C1519      F1526   1.358       .  S
C1520      C1521   1.410       .  A
C1520      F1525   1.358       .  S
C1521      C1522   1.411       .  A
C1522      F1523   1.358       .  S
C1527      C1528   1.410       .  A
C1527      C1532   1.406       .  A
C1527      F1534   1.358       .  S
C1528      C1529   1.406       .  A
C1529      C1530   1.404       .  A
C1529      F1536   1.357       .  S
C1530      C1531   1.409       .  A
C1530      F1535   1.357       .  S
C1531      C1532   1.408       .  A
C1532      F1533   1.358       .  S
C1537      C1538   1.411       .  A
C1537      C1542   1.396       .  A
C1537      F1544   1.358       .  S
C1538      C1539   1.415       .  A
C1539      C1540   1.406   1_545  A
C1539      F1546   1.358   1_545  S
C1540      C1541   1.405       .  A
C1540      F1545   1.358       .  S
C1541      C1542   1.405   1_565  A
C1542      F1543   1.358   1_556  S
C1547      C1548   1.409       .  A
C1547      C1552   1.411       .  A
C1547      F1554   1.357       .  S
C1548      C1549   1.402       .  A
C1549      C1550   1.392       .  A
C1549      F1556   1.359       .  S
C1550      C1551   1.417       .  A
C1550      F1555   1.358       .  S
C1551      C1552   1.414       .  A
C1552      F1553   1.357       .  S
C1557      C1558   1.417       .  A
C1557      C1562   1.409   1_556  A
C1557      F1564   1.357       .  S
C1558      C1559   1.410       .  A
C1559      C1560   1.400       .  A
C1559      F1566   1.358       .  S
C1560      C1561   1.413       .  A
C1560      F1565   1.359       .  S
C1561      C1562   1.405   1_556  A
C1562      F1563   1.357       .  S
C1567      C1568   1.411       .  A
C1567      C1572   1.412       .  A
C1567      F1574   1.357       .  S
C1568      C1569   1.414       .  A
C1569      C1570   1.398       .  A
C1569      F1576   1.358       .  S
C1570      C1571   1.401       .  A
C1570      F1575   1.358       .  S
C1571      C1572   1.409       .  A
C1572      F1573   1.357       .  S
C1577      C1578   1.415       .  A
C1577      C1582   1.404       .  A
C1577      F1584   1.357       .  S
C1578      C1579   1.410       .  A
C1579      C1580   1.400   1_545  A
C1579      F1586   1.358       .  S
C1580      C1581   1.408   1_565  A
C1580      F1585   1.359       .  S
C1581      C1582   1.404       .  A
C1582      F1583   1.358       .  S
C1587      C1588   1.408       .  A
C1587      C1592   1.399       .  A
C1587      F1594   1.358       .  S
C1588      C1589   1.404       .  A
C1589      C1590   1.403       .  A
C1589      F1596   1.357       .  S
C1590      C1591   1.406       .  A
C1590      F1595   1.358       .  S
C1591      C1592   1.402       .  A
C1592      F1593   1.358       .  S
C1597      C1598   1.411       .  A
C1597      C1602   1.396       .  A
C1597      F1604   1.358       .  S
C1598      C1599   1.415       .  A
C1599      C1600   1.406       .  A
C1599      F1606   1.358       .  S
C1600      C1601   1.406       .  A
C1600      F1605   1.358       .  S
C1601      C1602   1.406       .  A
C1602      F1603   1.358       .  S
C1607      C1608   1.409       .  A
C1607      C1612   1.395       .  A
C1607      F1614   1.358       .  S
C1608      C1609   1.407       .  A
C1609      C1610   1.403       .  A
C1609      F1616   1.357   1_556  S
C1610      C1611   1.404       .  A
C1610      F1615   1.358       .  S
C1611      C1612   1.399       .  A
C1612      F1613   1.358       .  S
C1617      C1618   1.415       .  A
C1617      C1622   1.400       .  A
C1617      F1624   1.358       .  S
C1618      C1619   1.410       .  A
C1619      C1620   1.399       .  A
C1619      F1626   1.358       .  S
C1620      C1621   1.407       .  A
C1620      F1625   1.358       .  S
C1621      C1622   1.402       .  A
C1622      F1623   1.358       .  S
C1627      C1628   1.404       .  A
C1627      C1632   1.402       .  A
C1627      F1634   1.357       .  S
C1628      C1629   1.407       .  A
C1629      C1630   1.396       .  A
C1629      F1636   1.358       .  S
C1630      C1631   1.401       .  A
C1630      F1635   1.358       .  S
C1631      C1632   1.406       .  A
C1632      F1633   1.358       .  S
C1637      C1638   1.415       .  A
C1637      C1642   1.403       .  A
C1637      F1644   1.358       .  S
C1638      C1639   1.409       .  A
C1639      C1640   1.400       .  A
C1639      F1646   1.358       .  S
C1640      C1641   1.407       .  A
C1640      F1645   1.358       .  S
C1641      C1642   1.403       .  A
C1642      F1643   1.358       .  S
C1647      C1648   1.410       .  A
C1647      C1652   1.403       .  A
C1647      F1654   1.358       .  S
C1648      C1649   1.406       .  A
C1649      C1650   1.401       .  A
C1649      F1656   1.357       .  S
C1650      C1651   1.406       .  A
C1650      F1655   1.358       .  S
C1651      C1652   1.405       .  A
C1652      F1653   1.358       .  S
C1657      C1658   1.410       .  A
C1657      C1662   1.408       .  A
C1657      F1664   1.358       .  S
C1658      C1659   1.409   1_554  A
C1659      C1660   1.406       .  A
C1659      F1666   1.358       .  S
C1660      C1661   1.408       .  A
C1660      F1665   1.358       .  S
C1661      C1662   1.409   1_556  A
C1662      F1663   1.358       .  S
C1667      C1668   1.410       .  A
C1667      C1672   1.408       .  A
C1667      F1674   1.357       .  S
C1668      C1669   1.415       .  A
C1669      C1670   1.396       .  A
C1669      F1676   1.359   1_556  S
C1670      C1671   1.401       .  A
C1670      F1675   1.359       .  S
C1671      C1672   1.407       .  A
C1672      F1673   1.357       .  S
C1677      C1678   1.415       .  A
C1677      C1682   1.402   1_554  A
C1677      F1684   1.358       .  S
C1678      C1679   1.409       .  A
C1679      C1680   1.395       .  A
C1679      F1686   1.358       .  S
C1680      C1681   1.408       .  A
C1680      F1685   1.358   1_655  S
C1681      C1682   1.405   1_554  A
C1682      F1683   1.358       .  S
C1687      C1688   1.408       .  A
C1687      C1692   1.405       .  A
C1687      F1694   1.357       .  S
C1688      C1689   1.411       .  A
C1689      C1690   1.397       .  A
C1689      F1696   1.359       .  S
C1690      C1691   1.401       .  A
C1690      F1695   1.358       .  S
C1691      C1692   1.405       .  A
C1692      F1693   1.357       .  S
C1697      C1698   1.407       .  A
C1697      C1702   1.393       .  A
C1697      F1704   1.358       .  S
C1698      C1699   1.412       .  A
C1699      C1700   1.400   1_655  A
C1699      F1706   1.358   1_655  S
C1700      C1701   1.406       .  A
C1700      F1705   1.358       .  S
C1701      C1702   1.407   1_455  A
C1702      F1703   1.358       .  S
C1707      C1708   1.400       .  A
C1707      C1712   1.391       .  A
C1707      F1714   1.359       .  S
C1708      C1709   1.409       .  A
C1709      C1710   1.413       .  A
C1709      F1716   1.357       .  S
C1710      C1711   1.413       .  A
C1710      F1715   1.357       .  S
C1711      C1712   1.414       .  A
C1712      F1713   1.358       .  S
C1717      C1718   1.408       .  A
C1717      C1722   1.397       .  A
C1717      F1724   1.358       .  S
C1718      C1719   1.416       .  A
C1719      C1720   1.407       .  A
C1719      F1726   1.358       .  S
C1720      C1721   1.404       .  A
C1720      F1725   1.357       .  S
C1721      C1722   1.407       .  A
C1722      F1723   1.358   1_554  S
C1727      C1728   1.407       .  A
C1727      C1732   1.406       .  A
C1727      F1734   1.358       .  S
C1728      C1729   1.400       .  A
C1729      C1730   1.395       .  A
C1729      F1736   1.359       .  S
C1730      C1731   1.412       .  A
C1730      F1735   1.359       .  S
C1731      C1732   1.408       .  A
C1732      F1733   1.357       .  S
C1737      C1738   1.407       .  A
C1737      C1742   1.395       .  A
C1737      F1744   1.358       .  S
C1738      C1739   1.412       .  A
C1739      C1740   1.400       .  A
C1739      F1746   1.358       .  S
C1740      C1741   1.403       .  A
C1740      F1745   1.358       .  S
C1741      C1742   1.406       .  A
C1742      F1743   1.358       .  S
C1747      C1748   1.407       .  A
C1747      C1752   1.409       .  A
C1747      F1754   1.357       .  S
C1748      C1749   1.401       .  A
C1749      C1750   1.394       .  A
C1749      F1756   1.359       .  S
C1750      C1751   1.413       .  A
C1750      F1755   1.359   1_655  S
C1751      C1752   1.410       .  A
C1752      F1753   1.357       .  S
C1757      C1758   1.403       .  A
C1757      C1762   1.403       .  A
C1757      F1764   1.357       .  S
C1758      C1759   1.409       .  A
C1759      C1760   1.398       .  A
C1759      F1766   1.359       .  S
C1760      C1761   1.400       .  A
C1760      F1765   1.358   1_655  S
C1761      C1762   1.407       .  A
C1762      F1763   1.358       .  S
C1767      C1768   1.412       .  A
C1767      C1772   1.394       .  A
C1767      F1774   1.359       .  S
C1768      C1769   1.411       .  A
C1769      C1770   1.407       .  A
C1769      F1776   1.357       .  S
C1770      C1771   1.405       .  A
C1770      F1775   1.357       .  S
C1771      C1772   1.401       .  A
C1772      F1773   1.359       .  S
C1777      C1778   1.410       .  A
C1777      C1782   1.393       .  A
C1777      F1784   1.358       .  S
C1778      C1779   1.414       .  A
C1779      C1780   1.399       .  A
C1779      F1786   1.358       .  S
C1780      C1781   1.402       .  A
C1780      F1785   1.358       .  S
C1781      C1782   1.403       .  A
C1782      F1783   1.358       .  S
C1787      C1788   1.408       .  A
C1787      C1792   1.396       .  A
C1787      F1794   1.358       .  S
C1788      C1789   1.416       .  A
C1789      C1790   1.405       .  A
C1789      F1796   1.358       .  S
C1790      C1791   1.405       .  A
C1790      F1795   1.358       .  S
C1791      C1792   1.410       .  A
C1792      F1793   1.358       .  S
C1797      C1798   1.406       .  A
C1797      C1802   1.407       .  A
C1797      F1804   1.357       .  S
C1798      C1799   1.400       .  A
C1799      C1800   1.396       .  A
C1799      F1806   1.358       .  S
C1800      C1801   1.414       .  A
C1800      F1805   1.358       .  S
C1801      C1802   1.411       .  A
C1802      F1803   1.357       .  S
C1807      C1808   1.415       .  A
C1807      C1812   1.405       .  A
C1807      F1814   1.357       .  S
C1808      C1809   1.410       .  A
C1809      C1810   1.395       .  A
C1809      F1816   1.358       .  S
C1810      C1811   1.409       .  A
C1810      F1815   1.359       .  S
C1811      C1812   1.405       .  A
C1812      F1813   1.357       .  S
C1817      C1818   1.409       .  A
C1817      C1822   1.406       .  A
C1817      F1824   1.357       .  S
C1818      C1819   1.412       .  A
C1819      C1820   1.394       .  A
C1819      F1826   1.359       .  S
C1820      C1821   1.400       .  A
C1820      F1825   1.359       .  S
C1821      C1822   1.405       .  A
C1822      F1823   1.357       .  S
C1827      C1828   1.409       .  A
C1827      C1832   1.399       .  A
C1827      F1834   1.358       .  S
C1828      C1829   1.418       .  A
C1829      C1830   1.404       .  A
C1829      F1836   1.357       .  S
C1830      C1831   1.402       .  A
C1830      F1835   1.358       .  S
C1831      C1832   1.408       .  A
C1832      F1833   1.358       .  S
C1837      C1838   1.408       .  A
C1837      C1842   1.400       .  A
C1837      F1844   1.358       .  S
C1838      C1839   1.408       .  A
C1839      C1840   1.410       .  A
C1839      F1846   1.358       .  S
C1840      C1841   1.409       .  A
C1840      F1845   1.358       .  S
C1841      C1842   1.402       .  A
C1842      F1843   1.358       .  S
C1847      C1848   1.414       .  A
C1847      C1852   1.401       .  A
C1847      F1854   1.358       .  S
C1848      C1849   1.410       .  A
C1849      C1850   1.398       .  A
C1849      F1856   1.358       .  S
C1850      C1851   1.409       .  A
C1850      F1855   1.358       .  S
C1851      C1852   1.405       .  A
C1852      F1853   1.358       .  S
