geometry optimzed in LAMMPS
_audit_creation_date              2020-11-30 
_audit_creation_method            'lammps2cif' 
_symmetry_space_group_name_H-M    'P1' 
_symmetry_Int_Tables_number       1 
_symmetry_cell_setting            triclinic 
loop_ 
_symmetry_equiv_pos_as_xyz 
  x,y,z 
_cell_length_a                    41.26022302 
_cell_length_b                    41.31115783365293 
_cell_length_c                    41.42778846752269 
_cell_angle_alpha                 89.88361683187318 
_cell_angle_beta                  89.67984409785153 
_cell_angle_gamma                 89.6465005557668 
loop_ 
_atom_site_label 
_atom_site_type_symbol 
_atom_site_fract_x 
_atom_site_fract_y 
_atom_site_fract_z 
_atom_site_charge 
Zn1        Zn  0.73175494  0.72426715  0.71259324     1.49700
Zn2        Zn  0.79579826  0.76358854  0.71126992     1.49400
Zn3        Zn  0.72862347  0.79446574  0.74000898     1.49100
Zn4        Zn  0.76390033  0.73545238  0.77844945     1.49500
O5          O  0.75563441  0.75507047  0.73606723    -1.84100
O6          O  0.75056468  0.71667579  0.67058382    -0.74700
O7          O  0.80127014  0.81232859  0.71065526    -0.74500
O8          O  0.68311444  0.78955622  0.72047727    -0.74100
O9          O  0.79581258  0.74426073  0.66445161    -0.74700
O10         O  0.68733480  0.73858302  0.70473700    -0.74300
O11         O  0.75238433  0.83306605  0.72170410    -0.74900
O12         O  0.74824712  0.76554714  0.81356075    -0.74300
O13         O  0.83453042  0.74682667  0.73685756    -0.75100
O14         O  0.72452098  0.80613578  0.78713101    -0.74500
O15         O  0.81259052  0.73244792  0.78417588    -0.74900
O16         O  0.74225490  0.69071487  0.78426050    -0.74800
O17         O  0.72788088  0.68207928  0.73360230    -0.74600
C18         C  0.77462735  0.72477163  0.65343647     0.77200
C19         C  0.78235657  0.83654177  0.71498728     0.77700
C20         C  0.67080487  0.76429856  0.70788687     0.76600
C21         C  0.73412659  0.79306423  0.81330588     0.77000
C22         C  0.83723971  0.73749170  0.76613158     0.78100
C23         C  0.73025196  0.67254767  0.76252661     0.77200
C24         C  0.88288981  0.99968817  0.74240854    -0.02400
Zn25       Zn  0.79621637  0.23578540  0.77779131     1.49700
Zn26       Zn  0.75684269  0.27060641  0.71820747     1.49400
Zn27       Zn  0.72598510  0.20940973  0.75646378     1.49100
Zn28       Zn  0.73552430  0.27605485  0.78883343     1.49500
O29         O  0.75407272  0.24703778  0.75893879    -1.84100
O30         O  0.83189516  0.25383264  0.74889858    -0.74700
O31         O  0.73945356  0.24186237  0.68273246    -0.74500
O32         O  0.75112970  0.16836912  0.76899297    -0.74100
O33         O  0.80421618  0.27545999  0.70792031    -0.74700
O34         O  0.80135658  0.18710533  0.77467836    -0.74300
O35         O  0.71621531  0.20131661  0.70954074    -0.74900
O36         O  0.70148111  0.25570807  0.81555562    -0.74300
O37         O  0.73275355  0.31493913  0.71882455    -0.75100
O38         O  0.68422817  0.21644547  0.78339963    -0.74500
O39         O  0.71400639  0.31338439  0.76902339    -0.74900
O40         O  0.76863537  0.29438863  0.81659891    -0.74800
O41         O  0.79925075  0.25148138  0.82569980    -0.74600
C42         C  0.83095757  0.26716252  0.72104313     0.77200
C43         C  0.72472666  0.21477992  0.68309963     0.77700
C44         C  0.78163661  0.16364444  0.77169996     0.76600
C45         C  0.68014548  0.23523829  0.80761116     0.77000
C46         C  0.71587427  0.32708108  0.74179603     0.78100
C47         C  0.78612819  0.27782353  0.83548034     0.77200
C48         C  0.63475521  0.50348040  0.75303009    -0.02400
C49         C  0.74639119  0.62165681  0.49084459    -0.02400
Zn50       Zn  0.76016917  0.78565978  0.29213841     1.49700
Zn51       Zn  0.72357088  0.72134132  0.26519608     1.49400
Zn52       Zn  0.71679877  0.78729945  0.23266471     1.49100
Zn53       Zn  0.78361871  0.75063848  0.22419769     1.49500
O54         O  0.74697849  0.76083276  0.25392275    -1.84100
O55         O  0.74301651  0.76373407  0.33267082    -0.74700
O56         O  0.67997361  0.71563085  0.24115070    -0.74500
O57         O  0.71021919  0.82968115  0.25191231    -0.74100
O58         O  0.71630320  0.72146089  0.31287158    -0.74700
O59         O  0.74561321  0.83397567  0.29150546    -0.74300
O60         O  0.67524836  0.76676805  0.22592835    -0.74900
O61         O  0.77793674  0.77181594  0.17806460    -0.74300
O62         O  0.75394745  0.68336490  0.25862506    -0.75100
O63         O  0.73220117  0.79739237  0.18978500    -0.74500
O64         O  0.79197623  0.70146140  0.22472104    -0.74900
O65         O  0.82525970  0.76548517  0.24524806    -0.74800
O66         O  0.80880263  0.78142286  0.29412623    -0.74600
C67         C  0.72678760  0.73783309  0.33665400     0.77200
C68         C  0.66405255  0.73834115  0.22741716     0.77700
C69         C  0.72407392  0.84647397  0.27320488     0.76600
C70         C  0.75493836  0.79123485  0.17015345     0.77000
C71         C  0.78002669  0.67914575  0.24253934     0.78100
C72         C  0.83131691  0.77334731  0.27438323     0.77200
C73         C  0.75125477  0.86963665  0.99048777    -0.02400
C74         C  0.49823275  0.75900116  0.12806511    -0.02400
C75         C  0.37183928  0.00702614  0.75246301    -0.02400
C76         C  0.75630152  0.36564851  0.00680741    -0.02400
C77         C  0.25560727  0.61408504  0.99390827    -0.02400
C78         C  0.11787038  0.50364190  0.74192039    -0.02400
C79         C  0.73806783  0.12963279  0.50826815    -0.02400
C80         C  0.99701203  0.74837926  0.37436832    -0.02400
Zn81       Zn  0.28735826  0.73242015  0.27082465     1.49700
Zn82       Zn  0.24927045  0.76136599  0.20663515     1.49400
Zn83       Zn  0.22379933  0.69568427  0.24134809     1.49100
Zn84       Zn  0.21888335  0.76411291  0.27471753     1.49500
O85         O  0.24547364  0.73774261  0.24794791    -1.84100
O86         O  0.32364973  0.74997266  0.24241009    -0.74700
O87         O  0.23815233  0.73194694  0.16819909    -0.74500
O88         O  0.25236081  0.65930792  0.25941434    -0.74100
O89         O  0.29658615  0.76883191  0.19988757    -0.74700
O90         O  0.29679919  0.68469688  0.27610795    -0.74300
O91         O  0.22621701  0.68583133  0.19350573    -0.74900
O92         O  0.17689075  0.74433524  0.28095169    -0.74300
O93         O  0.22635248  0.80655098  0.20650099    -0.75100
O94         O  0.17569554  0.69549174  0.25920789    -0.74500
O95         O  0.21029903  0.80768737  0.25743918    -0.74900
O96         O  0.23753560  0.77189333  0.31701869    -0.74800
O97         O  0.28804413  0.75350135  0.31609480    -0.74600
C98         C  0.32313336  0.76274035  0.21432309     0.77200
C99         C  0.23278019  0.70150601  0.16774212     0.77700
C100        C  0.28125811  0.65877410  0.27040768     0.76600
C101        C  0.16164707  0.71867483  0.27448489     0.77000
C102        C  0.21334147  0.82154551  0.23033632     0.78100
C103        C  0.26477922  0.76814399  0.33043193     0.77200
C104        C  0.23965234  0.86694143  0.49623436    -0.02400
C105        C  0.87537659  0.50707109  0.24818372    -0.02400
Zn106      Zn  0.73479320  0.22693494  0.28881065     1.49700
Zn107      Zn  0.73223102  0.29126624  0.25300327     1.49400
Zn108      Zn  0.79943808  0.26551543  0.28593870     1.49100
Zn109      Zn  0.76887939  0.22766950  0.22272823     1.49500
O110        O  0.75979901  0.25333026  0.26199698    -1.84100
O111        O  0.69038345  0.24225333  0.29372481    -0.74700
O112        O  0.75592397  0.33214202  0.26392077    -0.74500
O113        O  0.79991697  0.24928318  0.33454031    -0.74100
O114        O  0.68544679  0.29029570  0.27111389    -0.74700
O115        O  0.75280544  0.22468952  0.33106650    -0.74300
O116        O  0.80389501  0.31410588  0.28142567    -0.74900
O117        O  0.81727504  0.22387666  0.21804792    -0.74300
O118        O  0.73015884  0.29548669  0.20557692    -0.75100
O119        O  0.83855840  0.24970963  0.26020006    -0.74500
O120        O  0.75511998  0.25327957  0.18295272    -0.74900
O121        O  0.74862404  0.18191917  0.22371001    -0.74800
O122        O  0.73093668  0.18264055  0.27411385    -0.74600
C123        C  0.67318376  0.26668943  0.28668477     0.77200
C124        C  0.78541156  0.33681461  0.27140559     0.77700
C125        C  0.77706211  0.23282830  0.34752252     0.76600
C126        C  0.84158018  0.23472451  0.23341385     0.77000
C127        C  0.74115973  0.28083413  0.18084079     0.78100
C128        C  0.73511003  0.16788514  0.24772827     0.77200
C129        C  0.62332580  0.01065953  0.25414954    -0.02400
C130        C  0.50319191  0.25477707  0.88733506    -0.02400
Zn131      Zn  0.29300165  0.25395531  0.73556765     1.49700
Zn132      Zn  0.23066615  0.21377596  0.76361727     1.49400
Zn133      Zn  0.25628394  0.27917823  0.80161243     1.49100
Zn134      Zn  0.22209893  0.28131773  0.73451624     1.49500
O135        O  0.25119909  0.25662086  0.75941393    -1.84100
O136        O  0.30173202  0.20756062  0.72450206    -0.74700
O137        O  0.23019523  0.20350395  0.81067607    -0.74500
O138        O  0.30448580  0.28286528  0.81032417    -0.74100
O139        O  0.26025078  0.17955909  0.74446221    -0.74700
O140        O  0.33003235  0.26364879  0.76679105    -0.74300
O141        O  0.24199962  0.24844212  0.83792628    -0.74900
O142        O  0.20945513  0.32107415  0.75645947    -0.74300
O143        O  0.18464835  0.20949617  0.74381254    -0.75100
O144        O  0.23370388  0.32529031  0.80359185    -0.74500
O145        O  0.18261173  0.25840991  0.72237115    -0.74900
O146        O  0.24208695  0.29630024  0.69472135    -0.74800
O147        O  0.29391521  0.28206982  0.69335843    -0.74600
C148        C  0.28801736  0.18073621  0.73086289     0.77200
C149        C  0.23549964  0.21821104  0.83713089     0.77700
C150        C  0.33047692  0.27420398  0.79574596     0.76600
C151        C  0.21506982  0.33705909  0.78184889     0.77000
C152        C  0.17008378  0.23083718  0.72685180     0.78100
C153        C  0.26960284  0.29691199  0.68110202     0.77200
C154        C  0.00257395  0.24921019  0.62915192    -0.02400
C155        C  0.00298962  0.25491075  0.12498042    -0.02400
Zn156      Zn  0.95291245  0.02920682  0.99225841     1.49700
Zn157      Zn  0.98690112  0.96187552  0.01353502     1.49400
Zn158      Zn  0.01602346  0.00216972  0.95269192     1.49100
Zn159      Zn  0.02162454  0.02866578  0.02272951     1.49500
O160        O  0.99415716  0.00514381  0.99489124    -1.84100
O161        O  0.91577084  0.00285426  0.01090343    -0.74700
O162        O  0.00430756  0.92660023  0.98385234    -0.74500
O163        O  0.98603741  0.01891335  0.91783935    -0.74100
O164        O  0.93915459  0.95421482  0.01458555    -0.74700
O165        O  0.94134690  0.03182900  0.94560378    -0.74300
O166        O  0.02126703  0.95517955  0.94153454    -0.74900
O167        O  0.06319902  0.03988276  0.00206953    -0.74300
O168        O  0.00487197  0.95727609  0.05960269    -0.75100
O169        O  0.06093373  0.02382095  0.95110441    -0.74500
O170        O  0.03060175  0.00423473  0.06224598    -0.74900
O171        O  0.00242942  0.07030305  0.03565520    -0.74800
O172        O  0.95467740  0.07502004  0.01193246    -0.74600
C173        C  0.91403801  0.97221459  0.01426379     0.77200
C174        C  0.01538606  0.92810586  0.95508119     0.77700
C175        C  0.95611348  0.02679915  0.91901158     0.76600
C176        C  0.07579842  0.03765560  0.97415908     0.77000
C177        C  0.02276561  0.97725515  0.07460549     0.78100
C178        C  0.97703577  0.08658291  0.02959679     0.77200
Zn179      Zn  0.21759669  0.22011472  0.23375254     1.49700
Zn180      Zn  0.22285190  0.28498696  0.27292016     1.49400
Zn181      Zn  0.25162375  0.21671344  0.30027141     1.49100
Zn182      Zn  0.28569145  0.25146453  0.23761047     1.49500
O183        O  0.24484917  0.24387235  0.26165112    -1.84100
O184        O  0.17790585  0.24373554  0.22396060    -0.74700
O185        O  0.22171202  0.28890614  0.32169175    -0.74500
O186        O  0.23090038  0.17123335  0.29793261    -0.74100
O187        O  0.17651186  0.28841905  0.25355228    -0.74700
O188        O  0.20533958  0.17809316  0.25167056    -0.74300
O189        O  0.23785071  0.24110353  0.34086358    -0.74900
O190        O  0.32362076  0.23619059  0.26433051    -0.74300
O191        O  0.25018878  0.32290344  0.25678650    -0.75100
O192        O  0.29934479  0.21153425  0.30563345    -0.74500
O193        O  0.29165687  0.29920544  0.23134052    -0.74900
O194        O  0.28775821  0.23006402  0.19308675    -0.74800
O195        O  0.23838521  0.20957835  0.19245995    -0.74600
C196        C  0.16368363  0.26944492  0.23297326     0.77200
C197        C  0.22851104  0.27027664  0.34539537     0.77700
C198        C  0.21236747  0.16063010  0.27583321     0.76600
C199        C  0.32487887  0.22111881  0.29116402     0.77000
C200        C  0.27667718  0.32455944  0.24076555     0.78100
C201        C  0.26566332  0.21403436  0.17908379     0.77200
C202        C  0.11935039  0.99332570  0.24192780    -0.02400
Zn203      Zn  0.96590014  0.02901606  0.51785890     1.49700
Zn204      Zn  0.00246238  0.96274985  0.50986348     1.49400
Zn205      Zn  0.96478711  0.99733932  0.44972422     1.49100
Zn206      Zn  0.03132781  0.02954045  0.47945014     1.49500
O207        O  0.99164228  0.00428266  0.48867333    -1.84100
O208        O  0.95705892  0.00552739  0.55774229    -0.74700
O209        O  0.98904902  0.92607035  0.48101527    -0.74500
O210        O  0.91820604  0.01766056  0.45226050    -0.74100
O211        O  0.98038627  0.95709254  0.55433213    -0.74700
O212        O  0.92245243  0.03841642  0.50109878    -0.74300
O213        O  0.96117141  0.94964891  0.44156632    -0.74900
O214        O  0.03555930  0.03312735  0.43077040    -0.74300
O215        O  0.05111114  0.95792603  0.51288506    -0.75100
O216        O  0.99051161  0.01160561  0.41047540    -0.74500
O217        O  0.07152356  0.00389760  0.49358902    -0.74900
O218        O  0.03122175  0.07503339  0.50102257    -0.74800
O219        O  0.98555363  0.07056725  0.52884539    -0.74600
C220        C  0.96253549  0.97761241  0.56914511     0.77200
C221        C  0.97341215  0.92450544  0.45464171     0.77700
C222        C  0.90575900  0.03298666  0.47614419     0.76600
C223        C  0.01854603  0.02398468  0.40681886     0.77000
C224        C  0.07531208  0.97539930  0.50505210     0.78100
C225        C  0.01045179  0.08664212  0.52095711     0.77200
C226        C  0.24441221  0.12638043  0.00785473    -0.02400
Zn227      Zn  0.47597978  0.03432262  0.97781413     1.49700
Zn228      Zn  0.50645054  0.96494275  0.97495473     1.49400
Zn229      Zn  0.54108783  0.02259073  0.01575830     1.49100
Zn230      Zn  0.47104910  0.99176085  0.03959060     1.49500
O231        O  0.49922599  0.00309100  0.00265965    -1.84100
O232        O  0.46670689  0.01917766  0.93399800    -0.74700
O233        O  0.55370746  0.95360007  0.97504981    -0.74500
O234        O  0.54648125  0.06964563  0.99764102    -0.74100
O235        O  0.48893029  0.97049319  0.92922629    -0.74700
O236        O  0.49855457  0.07546732  0.97423865    -0.74300
O237        O  0.57891706  0.99238532  0.00229419    -0.74900
O238        O  0.49621861  0.99954493  0.08056181    -0.74300
O239        O  0.48717178  0.92483876  0.99471281    -0.75100
O240        O  0.54257166  0.02265319  0.06509450    -0.74500
O241        O  0.46492278  0.94354861  0.04003788    -0.74900
O242        O  0.42661958  0.01630365  0.04079744    -0.74800
O243        O  0.43447824  0.04604224  0.99699891    -0.74600
C244        C  0.47263760  0.99401574  0.91748200     0.77200
C245        C  0.57923011  0.96516008  0.98762028     0.77700
C246        C  0.52569141  0.08684957  0.98229628     0.76600
C247        C  0.52398450  0.01119770  0.08706452     0.77000
C248        C  0.47344979  0.92009217  0.02185385     0.78100
C249        C  0.41727538  0.03822618  0.02107727     0.77200
Zn250      Zn  0.50551338  0.02248467  0.52569133     1.49700
Zn251      Zn  0.53706497  0.96198085  0.48683667     1.49400
Zn252      Zn  0.47012633  0.95467799  0.52335180     1.49100
Zn253      Zn  0.47088443  0.99576847  0.46014973     1.49500
O254        O  0.49624803  0.98418503  0.49869095    -1.84100
O255        O  0.55439585  0.02954258  0.52866436    -0.74700
O256        O  0.54005821  0.91615476  0.50550950    -0.74500
O257        O  0.45915559  0.97244902  0.56580998    -0.74100
O258        O  0.57585699  0.98854441  0.50089753    -0.74700
O259        O  0.48230537  0.02068492  0.56992170    -0.74300
O260        O  0.49129596  0.91201696  0.52809263    -0.74900
O261        O  0.42503532  0.97576992  0.45974682    -0.74300
O262        O  0.54053838  0.95936872  0.43817174    -0.75100
O263        O  0.42666314  0.94737644  0.50509926    -0.74500
O264        O  0.49591547  0.98363618  0.41976937    -0.74900
O265        O  0.46761256  0.04426928  0.45762626    -0.74800
O266        O  0.48990869  0.06266960  0.50276872    -0.74600
C267        C  0.57895751  0.01497871  0.51642771     0.77200
C268        C  0.51860114  0.89979786  0.52052940     0.77700
C269        C  0.46368902  0.99863054  0.58093286     0.76600
C270        C  0.41149093  0.95721548  0.48044741     0.77000
C271        C  0.52328661  0.96995883  0.41493920     0.78100
C272        C  0.47674322  0.06757668  0.47546214     0.77200
C273        C  0.50088893  0.23081658  0.37226953    -0.02400
Zn274      Zn  0.98404596  0.46436511  0.97019164     1.49700
Zn275      Zn  0.95692537  0.53138958  0.00384166     1.49400
Zn276      Zn  0.02010946  0.49344090  0.03417423     1.49100
Zn277      Zn  0.02360128  0.52869891  0.96807928     1.49500
O278        O  0.99555286  0.50398654  0.99459516    -1.84100
O279        O  0.93562921  0.46101755  0.97012408    -0.74700
O280        O  0.95278697  0.53634942  0.05238793    -0.74500
O281        O  0.02304246  0.44512664  0.03808169    -0.74100
O282        O  0.91613460  0.50697465  0.99107125    -0.74700
O283        O  0.99804630  0.42431507  0.99536869    -0.74300
O284        O  0.99365821  0.50761313  0.07316055    -0.74900
O285        O  0.06693579  0.53343990  0.98642595    -0.74300
O286        O  0.95812238  0.57656466  0.98169568    -0.75100
O287        O  0.06700244  0.51188134  0.03522971    -0.74500
O288        O  0.00680286  0.57235054  0.95951739    -0.74900
O289        O  0.02892936  0.50931163  0.92548804    -0.74800
O290        O  0.00180366  0.46349739  0.92287218    -0.74600
C291        C  0.91203190  0.47871367  0.97947574     0.77200
C292        C  0.96766830  0.52420110  0.07653950     0.77700
C293        C  0.01276730  0.42094534  0.02216805     0.76600
C294        C  0.08158737  0.52687352  0.01245228     0.77000
C295        C  0.98111049  0.58850102  0.96475064     0.78100
C296        C  0.01976379  0.48488038  0.90960950     0.77200
Zn297      Zn  0.52436282  0.46862033  0.03850302     1.49700
Zn298      Zn  0.49329379  0.49428727  0.96972042     1.49400
Zn299      Zn  0.48693640  0.53379532  0.03249954     1.49100
Zn300      Zn  0.55566169  0.53171691  0.00167241     1.49500
O301        O  0.51567983  0.50628947  0.00997145    -1.84100
O302        O  0.50810099  0.42747789  0.01676105    -0.74700
O303        O  0.44770376  0.51668580  0.96474849    -0.74500
O304        O  0.48008992  0.52031154  0.07647445    -0.74100
O305        O  0.48948986  0.44538385  0.96948070    -0.74700
O306        O  0.50550645  0.47400965  0.08548349    -0.74300
O307        O  0.44465578  0.53984661  0.01288317    -0.74900
O308        O  0.55389812  0.57988378  0.01716301    -0.74300
O309        O  0.52320598  0.50418031  0.93134409    -0.75100
O310        O  0.50409364  0.57692058  0.03624545    -0.74500
O311        O  0.56477775  0.52949439  0.95407412    -0.74900
O312        O  0.59465120  0.50790212  0.01985918    -0.74800
O313        O  0.57318110  0.46247473  0.03940382    -0.74600
C314        C  0.49678147  0.42217508  0.98861389     0.77200
C315        C  0.43243234  0.53375979  0.98571120     0.77700
C316        C  0.48807402  0.49772906  0.09546398     0.76600
C317        C  0.52941299  0.59312843  0.03087569     0.77000
C318        C  0.55126309  0.51703728  0.92947982     0.78100
C319        C  0.59776554  0.47933427  0.03123848     0.77200
Zn320      Zn  0.96737127  0.51308511  0.46390896     1.49700
Zn321      Zn  0.01285192  0.45398981  0.46829876     1.49400
Zn322      Zn  0.03012733  0.52196876  0.50560960     1.49100
Zn323      Zn  0.96822845  0.47894126  0.52992545     1.49500
O324        O  0.99548787  0.49140410  0.49257338    -1.84100
O325        O  0.96739204  0.49702224  0.41996750    -0.74700
O326        O  0.06195958  0.45451990  0.47412500    -0.74500
O327        O  0.02429810  0.56861794  0.48678599    -0.74100
O328        O  0.99943737  0.45387021  0.41942818    -0.74700
O329        O  0.97987800  0.55731356  0.45976695    -0.74300
O330        O  0.07440781  0.50291892  0.49432375    -0.74900
O331        O  0.98890321  0.49369908  0.57145395    -0.74300
O332        O  0.99801239  0.41245708  0.49038127    -0.75100
O333        O  0.03083741  0.52304423  0.55458085    -0.74500
O334        O  0.96916101  0.43033500  0.53261169    -0.74900
O335        O  0.92148106  0.49735362  0.52890173    -0.74800
O336        O  0.92280673  0.51645667  0.47907752    -0.74600
C337        C  0.98072032  0.47393758  0.40492021     0.77200
C338        C  0.08275265  0.47475023  0.48461990     0.77700
C339        C  0.00091171  0.57739608  0.46861522     0.76600
C340        C  0.01417333  0.51019057  0.57725028     0.77000
C341        C  0.98226150  0.40736335  0.51650494     0.78100
C342        C  0.90789852  0.51211317  0.50548407     0.77200
C343        C  0.25162364  0.37932850  0.50574002    -0.02400
Zn344      Zn  0.52274763  0.51586023  0.47345356     1.49700
Zn345      Zn  0.48271784  0.45329803  0.47876715     1.49400
Zn346      Zn  0.55052113  0.45279445  0.51156668     1.49100
Zn347      Zn  0.48853818  0.49593157  0.54127092     1.49500
O348        O  0.51161922  0.47970501  0.50204274    -1.84100
O349        O  0.50159345  0.51514227  0.42928448    -0.74700
O350        O  0.49890371  0.40892248  0.47342141    -0.74500
O351        O  0.59119018  0.47474019  0.49379173    -0.74100
O352        O  0.47443456  0.46958324  0.43489677    -0.74700
O353        O  0.57026477  0.51748430  0.46844226    -0.74300
O354        O  0.54797426  0.40519699  0.49422195    -0.74900
O355        O  0.51653000  0.48501102  0.58040781    -0.74300
O356        O  0.44025592  0.45210149  0.49957043    -0.75100
O357        O  0.55686264  0.45488629  0.55999068    -0.74500
O358        O  0.44037691  0.48013018  0.54495488    -0.74900
O359        O  0.48810132  0.54505080  0.54071878    -0.74800
O360        O  0.51283775  0.55805745  0.49472528    -0.74600
C361        C  0.48252314  0.49391657  0.41808075     0.77200
C362        C  0.52431470  0.39249596  0.47906031     0.77700
C363        C  0.59451393  0.50137076  0.47853049     0.76600
C364        C  0.54327363  0.46955964  0.58367938     0.77000
C365        C  0.42541087  0.46306160  0.52411407     0.78100
C366        C  0.49983732  0.56608314  0.52142674     0.77200
C367        C  0.37786697  0.48828926  0.25503805    -0.02400
C368        C  0.00388606  0.75571990  0.86538607    -0.02400
Zn369      Zn  0.25540618  0.77331290  0.78693102     1.49700
Zn370      Zn  0.28592739  0.76638800  0.71739399     1.49400
Zn371      Zn  0.28566384  0.70504496  0.76089148     1.49100
Zn372      Zn  0.21977333  0.73443153  0.72802901     1.49500
O373        O  0.26099626  0.74442965  0.74907121    -1.84100
O374        O  0.27800928  0.81810889  0.78086596    -0.74700
O375        O  0.32891990  0.74812793  0.71332813    -0.74500
O376        O  0.28619245  0.70224358  0.80909035    -0.74100
O377        O  0.29500131  0.81036479  0.73068926    -0.74700
O378        O  0.27126654  0.75051019  0.82787917    -0.74300
O379        O  0.33306011  0.70505791  0.74470776    -0.74900
O380        O  0.21605643  0.68541626  0.72646285    -0.74300
O381        O  0.26705399  0.76923210  0.67403686    -0.75100
O382        O  0.26180020  0.66476177  0.74636179    -0.74500
O383        O  0.21629149  0.75396947  0.68178969    -0.74900
O384        O  0.18243879  0.75020071  0.75656576    -0.74800
O385        O  0.20716450  0.77773385  0.79552166    -0.74600
C386        C  0.29292921  0.82797181  0.75556818     0.77200
C387        C  0.34568766  0.72544712  0.72529231     0.77700
C388        C  0.28031805  0.72126911  0.83259696     0.76600
C389        C  0.23355164  0.66108281  0.73457146     0.77000
C390        C  0.23849952  0.76578180  0.66365186     0.78100
C391        C  0.18151503  0.76620151  0.78291104     0.77200
C392        C  0.50251265  0.73483549  0.61664489    -0.02400
C393        C  0.47677436  0.74233733  0.64299989    -0.05200
C394        C  0.46000269  0.77217740  0.64466155    -0.05100
C395        C  0.43337837  0.77593232  0.66506048    -0.23300
C396        C  0.42297728  0.75002223  0.68416131     0.18900
C397        C  0.44169721  0.72147217  0.68597203     0.16100
C398        C  0.46978941  0.71875211  0.66692697    -0.18300
C399        C  0.43048950  0.69529737  0.70467089    -0.20200
C400        C  0.39961943  0.69654144  0.71908035    -0.12700
C401        C  0.38019565  0.72431224  0.71556397     0.04000
C402        C  0.39306077  0.75160057  0.69974969    -0.24900
H403        H  0.46672821  0.79261924  0.62983490     0.09000
H404        H  0.41983724  0.79848997  0.66448332     0.12600
H405        H  0.48388603  0.69652782  0.66768926     0.12600
H406        H  0.44466971  0.67321337  0.70646118     0.12300
H407        H  0.39043408  0.67543920  0.73159323     0.12900
H408        H  0.37880833  0.77363859  0.69759834     0.14800
C409        C  0.03400803  0.75922691  0.84261713    -0.05200
C410        C  0.03242179  0.76335929  0.80875302    -0.05100
C411        C  0.06076306  0.76573839  0.78996941    -0.23300
C412        C  0.09139430  0.76581684  0.80454597     0.18900
C413        C  0.09330227  0.76407550  0.83847945     0.16100
C414        C  0.06506278  0.76023087  0.85696742    -0.18300
C415        C  0.12350006  0.76599979  0.85356530    -0.20200
C416        C  0.15176363  0.76867209  0.83517613    -0.12700
C417        C  0.15059823  0.76867881  0.80126459     0.04000
C418        C  0.12016058  0.76749713  0.78598361    -0.24900
H419        H  0.00958597  0.76501158  0.79632998     0.09000
H420        H  0.05867147  0.76795794  0.76399978     0.12600
H421        H  0.06712325  0.75794215  0.88295751     0.12600
H422        H  0.12532126  0.76503236  0.87963713     0.12300
H423        H  0.17479513  0.76919047  0.84758805     0.12900
H424        H  0.11892070  0.76759654  0.75985728     0.14800
C425        C  0.49434560  0.70313729  0.59823973    -0.05200
C426        C  0.46473367  0.68635407  0.60252083    -0.05100
C427        C  0.45937974  0.65661708  0.58777059    -0.23300
C428        C  0.48229494  0.64379431  0.56641016     0.18900
C429        C  0.51000775  0.66208412  0.55834965     0.16100
C430        C  0.51582640  0.69148980  0.57419464    -0.18300
C431        C  0.53186297  0.65017967  0.53520003    -0.20200
C432        C  0.52720716  0.61964920  0.52161126    -0.12700
C433        C  0.50094633  0.60031428  0.53136279     0.04000
C434        C  0.47810115  0.61286708  0.55322859    -0.24900
H435        H  0.44513020  0.69581828  0.61707273     0.09000
H436        H  0.43715757  0.64371731  0.59299081     0.12600
H437        H  0.53765515  0.70492988  0.56864362     0.12600
H438        H  0.55301599  0.66403991  0.52829047     0.12300
H439        H  0.54518168  0.61042757  0.50476966     0.12900
H440        H  0.45754681  0.59829067  0.56052368     0.14800
C441        C  0.39689006  0.48355643  0.28687821    -0.05200
C442        C  0.39349580  0.45549271  0.30620917    -0.05100
C443        C  0.41035361  0.45198856  0.33494077    -0.23300
C444        C  0.43177475  0.47591415  0.34492407     0.18900
C445        C  0.43749538  0.50313008  0.32519063     0.16100
C446        C  0.42071458  0.50633225  0.29593030    -0.18300
C447        C  0.45939584  0.52686068  0.33548165    -0.20200
C448        C  0.47470081  0.52392582  0.36550814    -0.12700
C449        C  0.46850273  0.49706755  0.38543932     0.04000
C450        C  0.44736597  0.47294298  0.37455953    -0.24900
H451        H  0.37825223  0.43555847  0.29930420     0.09000
H452        H  0.40650980  0.43047526  0.34945442     0.12600
H453        H  0.42517662  0.52720160  0.28067496     0.12600
H454        H  0.46419848  0.54792536  0.32062774     0.12300
H455        H  0.49096021  0.54280590  0.37329274     0.12900
H456        H  0.44239223  0.45192837  0.38946592     0.14800
C457        C  0.39011557  0.45548668  0.52620113    -0.05200
C458        C  0.37087413  0.45988284  0.55402356    -0.05100
C459        C  0.33820954  0.44967991  0.55439774    -0.23300
C460        C  0.32462555  0.43438928  0.52719935     0.18900
C461        C  0.34385498  0.43087309  0.49926753     0.16100
C462        C  0.37562201  0.44208338  0.49866955    -0.18300
C463        C  0.33205035  0.41428408  0.47264642    -0.20200
C464        C  0.30235079  0.39890403  0.47423187    -0.12700
C465        C  0.28185167  0.40158240  0.50166554     0.04000
C466        C  0.29307843  0.42098919  0.52770498    -0.24900
H467        H  0.38118051  0.47042818  0.57551960     0.09000
H468        H  0.32400665  0.45264498  0.57627051     0.12600
H469        H  0.38958326  0.43895583  0.47662155     0.12600
H470        H  0.34692144  0.41109467  0.45120350     0.12300
H471        H  0.29706104  0.38340716  0.45408262     0.12900
H472        H  0.27836819  0.42357166  0.54925200     0.14800
C473        C  0.21881737  0.39727268  0.51095757    -0.05200
C474        C  0.19152725  0.37774455  0.51762650    -0.05100
C475        C  0.16012996  0.38959532  0.51464300    -0.23300
C476        C  0.15474448  0.42136532  0.50451532     0.18900
C477        C  0.18131864  0.44228576  0.49955682     0.16100
C478        C  0.21335316  0.43027168  0.50318310    -0.18300
C479        C  0.17514618  0.47440239  0.48986191    -0.20200
C480        C  0.14317288  0.48526880  0.48475030    -0.12700
C481        C  0.11691565  0.46398234  0.48842235     0.04000
C482        C  0.12303969  0.43215328  0.49862048    -0.24900
H483        H  0.19462594  0.35230365  0.52328609     0.09000
H484        H  0.14000336  0.37336689  0.51889814     0.12600
H485        H  0.23363003  0.44583112  0.49753548     0.12600
H486        H  0.19500164  0.49104318  0.48608372     0.12300
H487        H  0.13897586  0.51014553  0.47752981     0.12900
H488        H  0.10291887  0.41578387  0.50247634     0.14800
C489        C  0.40436809  0.48575144  0.22834406    -0.05200
C490        C  0.42177596  0.45640015  0.22387269    -0.05100
C491        C  0.44360904  0.45244182  0.19813426    -0.23300
C492        C  0.45046134  0.47844317  0.17753652     0.18900
C493        C  0.43686502  0.50913674  0.18471316     0.16100
C494        C  0.41408991  0.51261075  0.20973835    -0.18300
C495        C  0.44543139  0.53591207  0.16608378    -0.20200
C496        C  0.46475714  0.53190258  0.13883308    -0.12700
C497        C  0.47548472  0.50092235  0.12899185     0.04000
C498        C  0.46970033  0.47432582  0.14944235    -0.24900
H499        H  0.41691707  0.43578533  0.23930940     0.09000
H500        H  0.45466406  0.42893934  0.19406373     0.12600
H501        H  0.40401959  0.53639786  0.21436957     0.12600
H502        H  0.43610456  0.55982325  0.17179187     0.12300
H503        H  0.46973713  0.55314775  0.12429494     0.12900
H504        H  0.47831694  0.45046018  0.14261230     0.14800
C505        C  0.00393011  0.72198772  0.88225662    -0.05200
C506        C  0.02642288  0.69744655  0.87359149    -0.05100
C507        C  0.02586290  0.66715084  0.88820524    -0.23300
C508        C  0.00238640  0.65982503  0.91141350     0.18900
C509        C  0.97857251  0.68295100  0.91970447     0.16100
C510        C  0.97921192  0.71369842  0.90480178    -0.18300
C511        C  0.95472069  0.67471887  0.94273184    -0.20200
C512        C  0.95490326  0.64398578  0.95753150    -0.12700
C513        C  0.97901829  0.62112560  0.94956792     0.04000
C514        C  0.00244623  0.62942126  0.92619258    -0.24900
H515        H  0.04446490  0.70083192  0.85496117     0.09000
H516        H  0.04382754  0.64923969  0.88107797     0.12600
H517        H  0.96071513  0.73141436  0.91094806     0.12600
H518        H  0.93607486  0.69206892  0.94940527     0.12300
H519        H  0.93649755  0.63825393  0.97533497     0.12900
H520        H  0.02103284  0.61207226  0.91924721     0.14800
C521        C  0.49905225  0.26079987  0.39520684    -0.05200
C522        C  0.47322768  0.28350759  0.39327254    -0.05100
C523        C  0.47250010  0.31129621  0.41190843    -0.23300
C524        C  0.49845199  0.31893717  0.43172298     0.18900
C525        C  0.52526166  0.29782941  0.43390833     0.16100
C526        C  0.52499626  0.26833123  0.41643068    -0.18300
C527        C  0.55201655  0.30743281  0.45263159    -0.20200
C528        C  0.55216664  0.33789239  0.46815627    -0.12700
C529        C  0.52521154  0.35883288  0.46583902     0.04000
C530        C  0.49826025  0.34841658  0.44807733    -0.24900
H531        H  0.45334197  0.28110947  0.37676042     0.09000
H532        H  0.45204864  0.32773598  0.40957063     0.12600
H533        H  0.54556506  0.25200364  0.41807900     0.12600
H534        H  0.57311891  0.29183866  0.45452902     0.12300
H535        H  0.57339369  0.34519681  0.48147365     0.12900
H536        H  0.47713557  0.36396210  0.44566811     0.14800
C537        C  0.50374431  0.76136886  0.59010500    -0.05200
C538        C  0.47531020  0.76857348  0.57264725    -0.05100
C539        C  0.47376120  0.79541981  0.55228770    -0.23300
C540        C  0.50085684  0.81524496  0.54828700     0.18900
C541        C  0.53070204  0.80618413  0.56214004     0.16100
C542        C  0.53224174  0.77868034  0.58198633    -0.18300
C543        C  0.55799138  0.82592479  0.55749057    -0.20200
C544        C  0.55490708  0.85580401  0.54170266    -0.12700
C545        C  0.52457847  0.86599345  0.53025105     0.04000
C546        C  0.49809165  0.84486061  0.53217046    -0.24900
H547        H  0.45350747  0.75461469  0.57661245     0.09000
H548        H  0.45090956  0.80156973  0.54098418     0.12600
H549        H  0.55548881  0.77190904  0.59190216     0.12600
H550        H  0.58120655  0.81915029  0.56765667     0.12300
H551        H  0.57560852  0.87174187  0.54030714     0.12900
H552        H  0.47472122  0.85239385  0.52280804     0.14800
C553        C  0.47534123  0.10086624  0.46251698    -0.05200
C554        C  0.47620412  0.12802653  0.48289306    -0.05100
C555        C  0.48069124  0.15911982  0.47001127    -0.23300
C556        C  0.48543584  0.16335384  0.43666927     0.18900
C557        C  0.48399990  0.13603080  0.41622469     0.16100
C558        C  0.47824782  0.10530841  0.42910657    -0.18300
C559        C  0.48940185  0.13946265  0.38320484    -0.20200
C560        C  0.49613059  0.16965973  0.37033490    -0.12700
C561        C  0.49750421  0.19773812  0.38992153     0.04000
C562        C  0.49195278  0.19416489  0.42343894    -0.24900
H563        H  0.47420913  0.12509880  0.50881196     0.09000
H564        H  0.48155984  0.17965147  0.48620359     0.12600
H565        H  0.47819939  0.08450564  0.41317496     0.12600
H566        H  0.48854145  0.11873490  0.36724372     0.12300
H567        H  0.49986810  0.17142762  0.34448292     0.12900
H568        H  0.49208026  0.21502261  0.43916822     0.14800
C569        C  0.38712786  0.05723249  0.02525044    -0.05200
C570        C  0.38964324  0.09084373  0.02069651    -0.05100
C571        C  0.36238283  0.10974152  0.01465278    -0.23300
C572        C  0.33177678  0.09554140  0.01358341     0.18900
C573        C  0.32826888  0.06228084  0.02062095     0.16100
C574        C  0.35618931  0.04298516  0.02615240    -0.18300
C575        C  0.29694001  0.04921477  0.02171567    -0.20200
C576        C  0.26962625  0.06904979  0.01652471    -0.12700
C577        C  0.27299585  0.10192004  0.00752698     0.04000
C578        C  0.30467144  0.11448680  0.00596528    -0.24900
H579        H  0.41322001  0.10227367  0.01985229     0.09000
H580        H  0.36536730  0.13538890  0.01005420     0.12600
H581        H  0.35401239  0.01705126  0.02935850     0.12600
H582        H  0.29347217  0.02397821  0.02789135     0.12300
H583        H  0.24598739  0.05873553  0.02081182     0.12900
H584        H  0.30819580  0.13983586  0.00035999     0.14800
C585        C  0.03302049  0.02560424  0.37420021    -0.05200
C586        C  0.05108966  0.05272713  0.36505181    -0.05100
C587        C  0.06865453  0.05268176  0.33619203    -0.23300
C588        C  0.06944089  0.02500357  0.31653894     0.18900
C589        C  0.05133639  0.99759168  0.32528079     0.16100
C590        C  0.03254868  0.99826746  0.35381530    -0.18300
C591        C  0.05367380  0.96964383  0.30615168    -0.20200
C592        C  0.07458599  0.96860002  0.27926933    -0.12700
C593        C  0.09330137  0.99571987  0.26995384     0.04000
C594        C  0.08934578  0.02415594  0.28910394    -0.24900
H595        H  0.05204528  0.07377198  0.38057210     0.09000
H596        H  0.08265741  0.07390135  0.32986630     0.12600
H597        H  0.01925751  0.97690850  0.36119127     0.12600
H598        H  0.04024923  0.94811871  0.31266754     0.12300
H599        H  0.07718105  0.94591783  0.26644126     0.12900
H600        H  0.10254313  0.04603407  0.28419382     0.14800
C601        C  0.35105320  0.46215484  0.25150082    -0.05200
C602        C  0.32624078  0.46053126  0.27515896    -0.05100
C603        C  0.30430740  0.43491725  0.27587829    -0.23300
C604        C  0.30644513  0.41022003  0.25288550     0.18900
C605        C  0.32909320  0.41290266  0.22735544     0.16100
C606        C  0.34999707  0.43955530  0.22592449    -0.18300
C607        C  0.33170109  0.38798141  0.20456308    -0.20200
C608        C  0.31356658  0.35976806  0.20825164    -0.12700
C609        C  0.29170265  0.35635971  0.23417563     0.04000
C610        C  0.28735416  0.38226949  0.25576145    -0.24900
H611        H  0.32511539  0.47826700  0.29435499     0.09000
H612        H  0.28668627  0.43366488  0.29533083     0.12600
H613        H  0.36596306  0.44160324  0.20530600     0.12600
H614        H  0.34892114  0.38960594  0.18478695     0.12300
H615        H  0.31725533  0.34018938  0.19124335     0.12900
H616        H  0.27077070  0.37980182  0.27600552     0.14800
C617        C  0.24464699  0.36042433  0.47384559    -0.05200
C618        C  0.23704567  0.37914851  0.44611270    -0.05100
C619        C  0.23037174  0.36503444  0.41653707    -0.23300
C620        C  0.23079308  0.33149034  0.41331429     0.18900
C621        C  0.23689051  0.31180357  0.44055407     0.16100
C622        C  0.24291709  0.32628238  0.47086747    -0.18300
C623        C  0.23743214  0.27800652  0.43666782    -0.20200
C624        C  0.23342904  0.26418949  0.40598002    -0.12700
C625        C  0.22805634  0.28385152  0.37868068     0.04000
C626        C  0.22596199  0.31752428  0.38291865    -0.24900
H627        H  0.23724764  0.40531760  0.44717263     0.09000
H628        H  0.22550751  0.38052508  0.39595450     0.12600
H629        H  0.24589099  0.31077022  0.49164052     0.12600
H630        H  0.24197917  0.26230179  0.45714236     0.12300
H631        H  0.23529998  0.23815595  0.40350524     0.12900
H632        H  0.22209370  0.33316075  0.36222444     0.14800
C633        C  0.35618667  0.21713071  0.30783094    -0.05200
C634        C  0.35579558  0.20981883  0.34097759    -0.05100
C635        C  0.38388990  0.21168565  0.35905087    -0.23300
C636        C  0.41311026  0.22020331  0.34424609     0.18900
C637        C  0.41467019  0.22547264  0.31068731     0.16100
C638        C  0.38594921  0.22427252  0.29252259    -0.18300
C639        C  0.44480659  0.23229785  0.29629546    -0.20200
C640        C  0.47298802  0.23411479  0.31513096    -0.12700
C641        C  0.47130326  0.23065801  0.34904765     0.04000
C642        C  0.44069769  0.22368977  0.36290127    -0.24900
H643        H  0.33338549  0.20423336  0.35347505     0.09000
H644        H  0.38261878  0.20705754  0.38479572     0.12600
H645        H  0.38660880  0.22969762  0.26692158     0.12600
H646        H  0.44665888  0.23582030  0.27043234     0.12300
H647        H  0.49571023  0.23803260  0.30279704     0.12900
H648        H  0.43851521  0.22068948  0.38883817     0.14800
C649        C  0.13830125  0.02580885  0.24183341    -0.05200
C650        C  0.12397026  0.05305942  0.22646117    -0.05100
C651        C  0.13609552  0.08395861  0.23027382    -0.23300
C652        C  0.16189289  0.08935900  0.25102128     0.18900
C653        C  0.17637334  0.06328514  0.26772794     0.16100
C654        C  0.16472876  0.03152261  0.26284419    -0.18300
C655        C  0.20163017  0.06984614  0.28948701    -0.20200
C656        C  0.21280751  0.10172587  0.29372003    -0.12700
C657        C  0.19883722  0.12742137  0.27624202     0.04000
C658        C  0.17294398  0.12083684  0.25548097    -0.24900
H659        H  0.10197788  0.05086656  0.21255931     0.09000
H660        H  0.12431544  0.10392586  0.21789947     0.12600
H661        H  0.17507388  0.01173222  0.27659986     0.12600
H662        H  0.21297331  0.05033420  0.30289388     0.12300
H663        H  0.23293241  0.10610131  0.30975909     0.12900
H664        H  0.16149194  0.14037273  0.24212841     0.14800
C665        C  0.27048425  0.19976605  0.14680664    -0.05200
C666        C  0.28993110  0.21441499  0.12309010    -0.05100
C667        C  0.28951726  0.20291757  0.09122061    -0.23300
C668        C  0.26972514  0.17663664  0.08286873     0.18900
C669        C  0.25174729  0.16082465  0.10720545     0.16100
C670        C  0.25232638  0.17234709  0.13880078    -0.18300
C671        C  0.23304115  0.13389600  0.09965017    -0.20200
C672        C  0.23106376  0.12331357  0.06794508    -0.12700
C673        C  0.24628602  0.14033366  0.04247267     0.04000
C674        C  0.26718615  0.16610869  0.05071706    -0.24900
H675        H  0.30418207  0.23554141  0.12883395     0.09000
H676        H  0.30388369  0.21512214  0.07298442     0.12600
H677        H  0.23774468  0.16044214  0.15712405     0.12600
H678        H  0.21992828  0.12091706  0.11830483     0.12300
H679        H  0.21719593  0.10167181  0.06331387     0.12900
H680        H  0.28135441  0.17812762  0.03225776     0.14800
C681        C  0.01871901  0.89820011  0.93554768    -0.05200
C682        C  0.02039969  0.90092590  0.90171730    -0.05100
C683        C  0.01786592  0.87369652  0.88217054    -0.23300
C684        C  0.01423782  0.84301783  0.89599470     0.18900
C685        C  0.01455435  0.83945579  0.92985148     0.16100
C686        C  0.01639514  0.86715797  0.94956168    -0.18300
C687        C  0.01267657  0.80829700  0.94322515    -0.20200
C688        C  0.00997620  0.78105782  0.92327465    -0.12700
C689        C  0.00740029  0.78443724  0.88939031     0.04000
C690        C  0.01000159  0.81595006  0.87630340    -0.24900
H691        H  0.02210716  0.92438714  0.89014061     0.09000
H692        H  0.01814674  0.87673293  0.85617752     0.12600
H693        H  0.01528085  0.86462998  0.97558668     0.12600
H694        H  0.01366369  0.80493274  0.96914419     0.12300
H695        H  0.01011548  0.75765250  0.93482631     0.12900
H696        H  0.00878325  0.81927992  0.85036455     0.14800
C697        C  0.10805252  0.05236310  0.96980935    -0.05200
C698        C  0.13366723  0.03629282  0.95400120    -0.05100
C699        C  0.16554802  0.04785972  0.95674257    -0.23300
C700        C  0.17205800  0.07550117  0.97542529     0.18900
C701        C  0.14587532  0.09269049  0.98940497     0.16100
C702        C  0.11429151  0.08121172  0.98633987    -0.18300
C703        C  0.15157118  0.12073183  0.00708009    -0.20200
C704        C  0.18306829  0.13084993  0.01250895    -0.12700
C705        C  0.21010575  0.11257802  0.00167776     0.04000
C706        C  0.20406598  0.08591517  0.98108962    -0.24900
H707        H  0.12932630  0.01392315  0.94119555     0.09000
H708        H  0.18518213  0.03448368  0.94541104     0.12600
H709        H  0.09452748  0.09398165  0.99824170     0.12600
H710        H  0.13162346  0.13475075  0.01705041     0.12300
H711        H  0.18629671  0.15310311  0.02582823     0.12900
H712        H  0.22402272  0.07319941  0.96962966     0.14800
C713        C  0.10347944  0.98906322  0.20775910    -0.05200
C714        C  0.12161334  0.99864041  0.18012719    -0.05100
C715        C  0.11003496  0.99524524  0.14910958    -0.23300
C716        C  0.07950096  0.98243520  0.14400777     0.18900
C717        C  0.06015716  0.97269264  0.17040642     0.16100
C718        C  0.07206081  0.97629918  0.20214464    -0.18300
C719        C  0.02903480  0.96023564  0.16433368    -0.20200
C720        C  0.01698732  0.95911079  0.13261422    -0.12700
C721        C  0.03608082  0.97026589  0.10677145     0.04000
C722        C  0.06763319  0.98074225  0.11268681    -0.24900
H723        H  0.14538810  0.00927858  0.18238898     0.09000
H724        H  0.12498781  0.00317217  0.12900866     0.12600
H725        H  0.05630982  0.96943873  0.22173047     0.12600
H726        H  0.01366159  0.95243734  0.18413079     0.12300
H727        H  0.99235330  0.95130456  0.12852205     0.12900
H728        H  0.08249885  0.98934871  0.09276008     0.14800
C729        C  0.00027167  0.28404516  0.10062551    -0.05200
C730        C  0.97051249  0.29182504  0.08551923    -0.05100
C731        C  0.96751541  0.31851690  0.06463629    -0.23300
C732        C  0.99394464  0.33899523  0.05884115     0.18900
C733        C  0.02357657  0.33230978  0.07421424     0.16100
C734        C  0.02637465  0.30566340  0.09485015    -0.18300
C735        C  0.04999054  0.35310667  0.06982530    -0.20200
C736        C  0.04670076  0.38112770  0.05142092    -0.12700
C737        C  0.01722740  0.38854383  0.03642950     0.04000
C738        C  0.99101317  0.36697713  0.03946642    -0.24900
H739        H  0.94912576  0.27756450  0.09046067     0.09000
H740        H  0.94424273  0.32358706  0.05366338     0.12600
H741        H  0.04923459  0.30333162  0.10697895     0.12600
H742        H  0.07295704  0.34826064  0.08152623     0.12300
H743        H  0.06699630  0.39755649  0.04955520     0.12900
H744        H  0.96793609  0.37301738  0.02852115     0.14800
C745        C  0.13202371  0.27597114  0.21780005    -0.05200
C746        C  0.10449680  0.28549023  0.23551560    -0.05100
C747        C  0.07358817  0.28381408  0.22141551    -0.23300
C748        C  0.06996593  0.27245435  0.18956331     0.18900
C749        C  0.09790448  0.26429139  0.17152882     0.16100
C750        C  0.12847009  0.26654130  0.18550632    -0.18300
C751        C  0.09505561  0.25285009  0.14005113    -0.20200
C752        C  0.06472945  0.24954206  0.12621704    -0.12700
C753        C  0.03592593  0.25761046  0.14327454     0.04000
C754        C  0.03911358  0.26870521  0.17555344    -0.24900
H755        H  0.10668313  0.29243752  0.26059637     0.09000
H756        H  0.05250421  0.29039188  0.23570819     0.12600
H757        H  0.14966732  0.25925490  0.17162339     0.12600
H758        H  0.11637514  0.24646190  0.12598663     0.12300
H759        H  0.06367589  0.24143897  0.10139751     0.12900
H760        H  0.01813976  0.27467662  0.19003635     0.14800
C761        C  0.00283370  0.22138538  0.10726691    -0.05200
C762        C  0.01735659  0.19425703  0.12273956    -0.05100
C763        C  0.01475427  0.16315767  0.11047015    -0.23300
C764        C  0.99637995  0.15745383  0.08299478     0.18900
C765        C  0.98075879  0.18338307  0.06720860     0.16100
C766        C  0.98443824  0.21514919  0.07906014    -0.18300
C767        C  0.96144764  0.17685490  0.04006150    -0.20200
C768        C  0.95852205  0.14506866  0.02837892    -0.12700
C769        C  0.97509524  0.11949201  0.04355841     0.04000
C770        C  0.99345761  0.12598104  0.07121049    -0.24900
H771        H  0.02985743  0.19670506  0.14547526     0.09000
H772        H  0.02643509  0.14332659  0.12315651     0.12600
H773        H  0.97228380  0.23432820  0.06629476     0.12600
H774        H  0.94894904  0.19634326  0.02766047     0.12300
H775        H  0.94440168  0.14069262  0.00689326     0.12900
H776        H  0.00608514  0.10639915  0.08341764     0.14800
C777        C  0.99973957  0.28105691  0.60923705    -0.05200
C778        C  0.00275094  0.31039689  0.62651449    -0.05100
C779        C  0.99838003  0.34020533  0.61172667    -0.23300
C780        C  0.99136844  0.34191471  0.57891644     0.18900
C781        C  0.98886957  0.31326325  0.56055015     0.16100
C782        C  0.99243979  0.28287559  0.57589269    -0.18300
C783        C  0.98311839  0.31577721  0.52716961    -0.20200
C784        C  0.98048345  0.34632695  0.51233755    -0.12700
C785        C  0.98226391  0.37466462  0.53092440     0.04000
C786        C  0.98737741  0.37211713  0.56422119    -0.24900
H787        H  0.00821799  0.31005822  0.65206124     0.09000
H788        H  0.00065257  0.36200454  0.62603404     0.12600
H789        H  0.98911876  0.26113994  0.56186432     0.12600
H790        H  0.98133974  0.29420495  0.51247794     0.12300
H791        H  0.97700290  0.34784598  0.48648947     0.12900
H792        H  0.98967770  0.39389815  0.57860470     0.14800
C793        C  0.99837336  0.21775129  0.60908983    -0.05200
C794        C  0.97484700  0.19434468  0.61755924    -0.05100
C795        C  0.97234248  0.16535071  0.60093263    -0.23300
C796        C  0.99401200  0.15786719  0.57608355     0.18900
C797        C  0.01843640  0.17994082  0.56737202     0.16100
C798        C  0.02040705  0.20980484  0.58379524    -0.18300
C799        C  0.04062750  0.17128425  0.54283338    -0.20200
C800        C  0.03856670  0.14097826  0.52743826    -0.12700
C801        C  0.01409534  0.11903638  0.53617953     0.04000
C802        C  0.99188046  0.12805105  0.56049090    -0.24900
H803        H  0.95850454  0.19739728  0.63775739     0.09000
H804        H  0.95383555  0.14826331  0.60822412     0.12600
H805        H  0.03938451  0.22667494  0.57734033     0.12600
H806        H  0.05968949  0.18780027  0.53574801     0.12300
H807        H  0.05597328  0.13477042  0.50876690     0.12900
H808        H  0.97286389  0.11156261  0.56786174     0.14800
C809        C  0.13858624  0.22493642  0.71071661    -0.05200
C810        C  0.11536801  0.20272398  0.72191601    -0.05100
C811        C  0.08454205  0.20134283  0.70734026    -0.23300
C812        C  0.07656264  0.22233479  0.68162556     0.18900
C813        C  0.10045290  0.24362460  0.66988282     0.16100
C814        C  0.13100381  0.24441352  0.68398378    -0.18300
C815        C  0.09357683  0.26446705  0.64437782    -0.20200
C816        C  0.06269969  0.26581832  0.63154107    -0.12700
C817        C  0.03710091  0.24674309  0.64408713     0.04000
C818        C  0.04524956  0.22317155  0.66779757    -0.24900
H819        H  0.12062855  0.18731759  0.74242467     0.09000
H820        H  0.06671562  0.18460812  0.71674955     0.12600
H821        H  0.14882194  0.26118688  0.67448686     0.12600
H822        H  0.11210313  0.28018314  0.63447442     0.12300
H823        H  0.05948930  0.28191352  0.61121288     0.12900
H824        H  0.02696783  0.20638241  0.67619265     0.14800
C825        C  0.27142587  0.31748252  0.65182058    -0.05200
C826        C  0.25288034  0.34615239  0.65260644    -0.05100
C827        C  0.24565400  0.36293713  0.62454698    -0.23300
C828        C  0.25733602  0.35188334  0.59486836     0.18900
C829        C  0.27841253  0.32487152  0.59353064     0.16100
C830        C  0.28528514  0.30736566  0.62224469    -0.18300
C831        C  0.29172682  0.31610032  0.56345266    -0.20200
C832        C  0.28345455  0.33341346  0.53528291    -0.12700
C833        C  0.25960964  0.35817281  0.53592083     0.04000
C834        C  0.24795848  0.36777102  0.56661337    -0.24900
H835        H  0.24226918  0.35468901  0.67505039     0.09000
H836        H  0.23007457  0.38412036  0.62601348     0.12600
H837        H  0.29967602  0.28536005  0.62129891     0.12600
H838        H  0.30896626  0.29628794  0.56177824     0.12300
H839        H  0.29564082  0.32731822  0.51288712     0.12900
H840        H  0.23223937  0.38871236  0.56903546     0.14800
C841        C  0.23757205  0.19832826  0.86687030    -0.05200
C842        C  0.24577939  0.16534992  0.86375879    -0.05100
C843        C  0.25174467  0.14626194  0.89080267    -0.23300
C844        C  0.24881996  0.15943754  0.92172229     0.18900
C845        C  0.23965125  0.19220978  0.92549878     0.16100
C846        C  0.23472081  0.21177566  0.89797399    -0.18300
C847        C  0.23468902  0.20439887  0.95669944    -0.20200
C848        C  0.23763163  0.18403186  0.98364417    -0.12700
C849        C  0.24781490  0.15143216  0.98030619     0.04000
C850        C  0.25370456  0.13979300  0.94884216    -0.24900
H851        H  0.24870256  0.15438266  0.84018276     0.09000
H852        H  0.25844044  0.12107121  0.88749705     0.12600
H853        H  0.22841663  0.23712958  0.90071279     0.12600
H854        H  0.22690909  0.22924604  0.96018513     0.12300
H855        H  0.23037896  0.19363777  0.00684075     0.12900
H856        H  0.26008573  0.11455601  0.94533159     0.14800
C857        C  0.50425338  0.28838992  0.90430117    -0.05200
C858        C  0.50388559  0.31619056  0.88426832    -0.05100
C859        C  0.50061428  0.34716598  0.89698189    -0.23300
C860        C  0.49850577  0.35169270  0.93029828     0.18900
C861        C  0.50076082  0.32474227  0.95120611     0.16100
C862        C  0.50401781  0.29325203  0.93818595    -0.18300
C863        C  0.49972396  0.32995297  0.98474094    -0.20200
C864        C  0.49717383  0.36149295  0.99721095    -0.12700
C865        C  0.49493248  0.38838127  0.97639375     0.04000
C866        C  0.49504061  0.38300855  0.94290024    -0.24900
H867        H  0.50446619  0.31368220  0.85824842     0.09000
H868        H  0.49943453  0.36763289  0.88060877     0.12600
H869        H  0.50597171  0.27300174  0.95459386     0.12600
H870        H  0.50145422  0.30971075  0.00132339     0.12300
H871        H  0.49748021  0.36489194  0.02311566     0.12900
H872        H  0.49396896  0.40342070  0.92642839     0.14800
C873        C  0.50508326  0.22532306  0.91119972    -0.05200
C874        C  0.47998441  0.22008269  0.93389570    -0.05100
C875        C  0.48066422  0.19348058  0.95503138    -0.23300
C876        C  0.50668840  0.17139762  0.95443077     0.18900
C877        C  0.53225325  0.17620311  0.93241666     0.16100
C878        C  0.53047374  0.20177071  0.91018133    -0.18300
C879        C  0.55870421  0.15450287  0.93199729    -0.20200
C880        C  0.55867064  0.12687789  0.95163601    -0.12700
C881        C  0.53199254  0.12035732  0.97158613     0.04000
C882        C  0.50665088  0.14342398  0.97384688    -0.24900
H883        H  0.45955570  0.23662221  0.93507512     0.09000
H884        H  0.46061945  0.19002532  0.97167641     0.12600
H885        H  0.54878455  0.20188203  0.89155355     0.12600
H886        H  0.57879541  0.15817099  0.91544781     0.12300
H887        H  0.57806499  0.10926536  0.94910216     0.12900
H888        H  0.48576909  0.13834754  0.98902289     0.14800
C889        C  0.36143199  0.27507487  0.81393824    -0.05200
C890        C  0.36552348  0.29854694  0.83798543    -0.05100
C891        C  0.39298213  0.29832057  0.85748244    -0.23300
C892        C  0.41686842  0.27430552  0.85370884     0.18900
C893        C  0.41300477  0.25001810  0.83025674     0.16100
C894        C  0.38540784  0.25071646  0.81011582    -0.18300
C895        C  0.43645740  0.22523007  0.82811327    -0.20200
C896        C  0.46426441  0.22573699  0.84766802    -0.12700
C897        C  0.47029841  0.25189861  0.86868775     0.04000
C898        C  0.44461442  0.27457269  0.87307373    -0.24900
H899        H  0.34730250  0.31716952  0.84177619     0.09000
H900        H  0.39550607  0.31699557  0.87561165     0.12600
H901        H  0.38206089  0.23185314  0.79232739     0.12600
H902        H  0.43347717  0.20560613  0.81111241     0.12300
H903        H  0.48200476  0.20646483  0.84517796     0.12900
H904        H  0.44574000  0.29294601  0.89154912     0.14800
C905        C  0.53682281  0.96876210  0.38191223    -0.05200
C906        C  0.55594128  0.94235560  0.37199536    -0.05100
C907        C  0.57341465  0.94369642  0.34302444    -0.23300
C908        C  0.57320398  0.97206490  0.32429431     0.18900
C909        C  0.55339421  0.99840654  0.33360631     0.16100
C910        C  0.53458834  0.99625466  0.36191661    -0.18300
C911        C  0.55390774  0.02693310  0.31524152    -0.20200
C912        C  0.57562471  0.03016691  0.28937439    -0.12700
C913        C  0.59752424  0.00503299  0.28117452     0.04000
C914        C  0.59376935  0.97500044  0.29739562    -0.24900
H915        H  0.55802766  0.92104275  0.38712518     0.09000
H916        H  0.58849753  0.92322679  0.33620335     0.12600
H917        H  0.52022247  0.01692485  0.36968042     0.12600
H918        H  0.53844187  0.04724996  0.32165993     0.12300
H919        H  0.57631875  0.05295543  0.27643338     0.12900
H920        H  0.60721419  0.95374738  0.28999061     0.14800
C921        C  0.53595137  0.00895885  0.12062250    -0.05200
C922        C  0.52979208  0.98092979  0.13895127    -0.05100
C923        C  0.54464206  0.97619874  0.16891353    -0.23300
C924        C  0.56537697  0.99976875  0.18143203     0.18900
C925        C  0.57004904  0.02884638  0.16405664     0.16100
C926        C  0.55583278  0.03306190  0.13354440    -0.18300
C927        C  0.58893836  0.05323108  0.17745065    -0.20200
C928        C  0.60447588  0.04832597  0.20687715    -0.12700
C929        C  0.60346636  0.01798766  0.22296067     0.04000
C930        C  0.58200494  0.99452637  0.21061919    -0.24900
H931        H  0.51464607  0.96192824  0.12938321     0.09000
H932        H  0.54038108  0.95386951  0.18197917     0.12600
H933        H  0.56044571  0.05488857  0.11973071     0.12600
H934        H  0.59161049  0.07628440  0.16522378     0.12300
H935        H  0.61723093  0.06879570  0.21660128     0.12900
H936        H  0.57911980  0.97175157  0.22332066     0.14800
C937        C  0.72186790  0.13468309  0.24577760    -0.05200
C938        C  0.72550026  0.11544917  0.21810809    -0.05100
C939        C  0.70954754  0.08566629  0.21601097    -0.23300
C940        C  0.68919962  0.07515033  0.24123788     0.18900
C941        C  0.68618435  0.09387997  0.26942861     0.16100
C942        C  0.70293966  0.12303948  0.27176793    -0.18300
C943        C  0.66556367  0.08377942  0.29443658    -0.20200
C944        C  0.64618665  0.05648993  0.29065629    -0.12700
C945        C  0.64677696  0.03883651  0.26153542     0.04000
C946        C  0.67054050  0.04714140  0.23809456    -0.24900
H947        H  0.73999699  0.12373723  0.19788838     0.09000
H948        H  0.71212370  0.07146467  0.19417164     0.12600
H949        H  0.69982518  0.13741442  0.29344134     0.12600
H950        H  0.66371386  0.09754061  0.31662499     0.12300
H951        H  0.63076170  0.04971088  0.31064303     0.12900
H952        H  0.67250577  0.03309505  0.21607607     0.14800
C953        C  0.63882911  0.26610207  0.29760431    -0.05200
C954        C  0.61672604  0.29165104  0.29254941    -0.05100
C955        C  0.58481856  0.28965241  0.30478247    -0.23300
C956        C  0.57479500  0.26224188  0.32245778     0.18900
C957        C  0.59704761  0.23668244  0.32705792     0.16100
C958        C  0.62826276  0.23855144  0.31443509    -0.18300
C959        C  0.58851994  0.20982828  0.34539541    -0.20200
C960        C  0.55823919  0.20812143  0.35966992    -0.12700
C961        C  0.53433365  0.23242673  0.35471273     0.04000
C962        C  0.54345763  0.25996791  0.33625033    -0.24900
H963        H  0.62413723  0.31312616  0.27950553     0.09000
H964        H  0.56821393  0.30967230  0.30087278     0.12600
H965        H  0.64468110  0.21838725  0.31859130     0.12600
H966        H  0.60580469  0.19044631  0.34975604     0.12300
H967        H  0.55468879  0.18769111  0.37549993     0.12900
H968        H  0.52636927  0.27975599  0.33323493     0.14800
C969        C  0.97370127  0.25600271  0.14902346    -0.05200
C970        C  0.96363767  0.28553754  0.16318040    -0.05100
C971        C  0.93709090  0.28694543  0.18443896    -0.23300
C972        C  0.91958883  0.25889468  0.19204273     0.18900
C973        C  0.92904593  0.22919242  0.17815441     0.16100
C974        C  0.95565664  0.22792423  0.15712841    -0.18300
C975        C  0.91121956  0.20108418  0.18479001    -0.20200
C976        C  0.88346980  0.20262014  0.20411776    -0.12700
C977        C  0.87367463  0.23202113  0.21795476     0.04000
C978        C  0.89216410  0.26006198  0.21238450    -0.24900
H979        H  0.97651918  0.30767885  0.15779672     0.09000
H980        H  0.93006820  0.31007077  0.19468331     0.12600
H981        H  0.96150613  0.20454231  0.14715440     0.12600
H982        H  0.91814999  0.17808530  0.17419244     0.12300
H983        H  0.86919681  0.18097357  0.20773902     0.12900
H984        H  0.88410687  0.28302626  0.22231638     0.14800
C985        C  0.90111089  0.50551959  0.27567887    -0.05200
C986        C  0.92161459  0.53181711  0.28237208    -0.05100
C987        C  0.94443448  0.53003846  0.30734734    -0.23300
C988        C  0.94895148  0.50115260  0.32478924     0.18900
C989        C  0.93198169  0.47329892  0.31556632     0.16100
C990        C  0.90871476  0.47553861  0.29112672    -0.18300
C991        C  0.93758044  0.44385548  0.33183862    -0.20200
C992        C  0.95737148  0.44282313  0.35921028    -0.12700
C993        C  0.97187412  0.47117003  0.37051160     0.04000
C994        C  0.96897766  0.49988450  0.35211717    -0.24900
H995        H  0.91958982  0.55406194  0.26867204     0.09000
H996        H  0.95834930  0.55136945  0.31320767     0.12600
H997        H  0.89658680  0.45345222  0.28436107     0.12600
H998        H  0.92504972  0.42208559  0.32463459     0.12300
H999        H  0.95883934  0.42067213  0.37317644     0.12900
H1000       H  0.98010731  0.52193362  0.36074128     0.14800
C1001       C  0.95300213  0.52775362  0.10899771    -0.05200
C1002       C  0.93533507  0.55580281  0.11684421    -0.05100
C1003       C  0.91814344  0.55777967  0.14591006    -0.23300
C1004       C  0.91748919  0.53132298  0.16721010     0.18900
C1005       C  0.93535291  0.50310026  0.15980883     0.16100
C1006       C  0.95350128  0.50165506  0.13096074    -0.18300
C1007       C  0.93436295  0.47676082  0.18119833    -0.20200
C1008       C  0.91518908  0.47809641  0.20920418    -0.12700
C1009       C  0.89579158  0.50550616  0.21638689     0.04000
C1010       C  0.89881330  0.53267139  0.19552888    -0.24900
H1011       H  0.93450468  0.57607698  0.10023465     0.09000
H1012       H  0.90455859  0.57966396  0.15127392     0.12600
H1013       H  0.96668510  0.47970093  0.12486621     0.12600
H1014       H  0.94827896  0.45499985  0.17619148     0.12300
H1015       H  0.91525683  0.45736658  0.22520353     0.12900
H1016       H  0.88704752  0.55544349  0.20108126     0.14800
C1017       C  0.85144184  0.47870964  0.25361863    -0.05200
C1018       C  0.83420623  0.47763357  0.28325919    -0.05100
C1019       C  0.81664481  0.45035881  0.29249512    -0.23300
C1020       C  0.81544864  0.42343007  0.27221492     0.18900
C1021       C  0.83028339  0.42505221  0.24132371     0.16100
C1022       C  0.84723077  0.45295589  0.23182244    -0.18300
C1023       C  0.82899490  0.39819567  0.22084656    -0.20200
C1024       C  0.81420719  0.36974982  0.23126785    -0.12700
C1025       C  0.80013421  0.36770184  0.26211918     0.04000
C1026       C  0.80021281  0.39472691  0.28244222    -0.24900
H1027       H  0.83605106  0.49743633  0.30023489     0.09000
H1028       H  0.80500598  0.44992053  0.31600312     0.12600
H1029       H  0.85789573  0.45378856  0.20796023     0.12600
H1030       H  0.84006363  0.39891830  0.19707014     0.12300
H1031       H  0.81389538  0.34906170  0.21522379     0.12900
H1032       H  0.78904616  0.39320570  0.30614082     0.14800
C1033       C  0.24333154  0.84257899  0.52532157    -0.05200
C1034       C  0.27411824  0.82934042  0.53289922    -0.05100
C1035       C  0.27879587  0.80957192  0.56001730    -0.23300
C1036       C  0.25283181  0.80213419  0.58064007     0.18900
C1037       C  0.22177244  0.81425088  0.57354045     0.16100
C1038       C  0.21742328  0.83476622  0.54681990    -0.18300
C1039       C  0.19555518  0.80659796  0.59399086    -0.20200
C1040       C  0.20044541  0.78857183  0.62222321    -0.12700
C1041       C  0.23167490  0.77812311  0.63065625     0.04000
C1042       C  0.25762885  0.78412328  0.60907327    -0.24900
H1043       H  0.29505374  0.83504859  0.51812621     0.09000
H1044       H  0.30295366  0.80058755  0.56517421     0.12600
H1045       H  0.19358735  0.84501553  0.54424522     0.12600
H1046       H  0.17138111  0.81545561  0.58868809     0.12300
H1047       H  0.18013101  0.78445069  0.63835097     0.12900
H1048       H  0.28190034  0.77603985  0.61512763     0.14800
C1049       C  0.10832487  0.96103205  0.50714568    -0.05200
C1050       C  0.13597611  0.98021262  0.51154020    -0.05100
C1051       C  0.16706733  0.96612067  0.51140634    -0.23300
C1052       C  0.17111403  0.93273103  0.50594253     0.18900
C1053       C  0.14338784  0.91356425  0.50090924     0.16100
C1054       C  0.11236069  0.92761507  0.50214229    -0.18300
C1055       C  0.14701313  0.88071885  0.49387383    -0.20200
C1056       C  0.17773779  0.86675500  0.49216159    -0.12700
C1057       C  0.20611856  0.88470959  0.49866305     0.04000
C1058       C  0.20226154  0.91828178  0.50493854    -0.24900
H1059       H  0.13352099  0.00607184  0.51512583     0.09000
H1060       H  0.18795443  0.98141574  0.51508310     0.12600
H1061       H  0.09130442  0.91264187  0.49793386     0.12600
H1062       H  0.12602717  0.86576659  0.48937585     0.12300
H1063       H  0.17948175  0.84123214  0.48640587     0.12900
H1064       H  0.22310085  0.93348216  0.50873463     0.14800
C1065       C  0.37768133  0.94616295  0.47660756    -0.05200
C1066       C  0.36617459  0.93659146  0.44637352    -0.05100
C1067       C  0.33613042  0.92130116  0.44382757    -0.23300
C1068       C  0.31690731  0.91580999  0.47144038     0.18900
C1069       C  0.32728229  0.92714520  0.50164117     0.16100
C1070       C  0.35776373  0.94200022  0.50412546    -0.18300
C1071       C  0.30742689  0.92250601  0.52887907    -0.20200
C1072       C  0.27836591  0.90523423  0.52649356    -0.12700
C1073       C  0.26867339  0.89126332  0.49699538     0.04000
C1074       C  0.28813039  0.89807448  0.46932092    -0.24900
H1075       H  0.38112113  0.93943563  0.42498970     0.09000
H1076       H  0.32833032  0.91295282  0.42035656     0.12600
H1077       H  0.36638786  0.94961727  0.52757883     0.12600
H1078       H  0.31474627  0.93156439  0.55223703     0.12300
H1079       H  0.26410717  0.90137610  0.54817407     0.12900
H1080       H  0.28208982  0.88897758  0.44578159     0.14800
C1081       C  0.26809664  0.78273515  0.36269526    -0.05200
C1082       C  0.28372292  0.76703606  0.38838067    -0.05100
C1083       C  0.28085309  0.77944883  0.41987759    -0.23300
C1084       C  0.26244338  0.80769871  0.42588846     0.18900
C1085       C  0.24801940  0.82402482  0.39971012     0.16100
C1086       C  0.25111004  0.81166573  0.36855937    -0.18300
C1087       C  0.23024351  0.85232524  0.40489103    -0.20200
C1088       C  0.22687708  0.86479771  0.43578891    -0.12700
C1089       C  0.24047473  0.84901775  0.46304386     0.04000
C1090       C  0.25826458  0.81997971  0.45738958    -0.24900
H1091       H  0.29676094  0.74456774  0.38436102     0.09000
H1092       H  0.29242830  0.76662356  0.43957945     0.12600
H1093       H  0.23927630  0.82416163  0.34873589     0.12600
H1094       H  0.21939008  0.86529981  0.38485659     0.12300
H1095       H  0.21458353  0.88789314  0.43804837     0.12900
H1096       H  0.26945558  0.80684366  0.47687337     0.14800
C1097       C  0.29837168  0.62747136  0.27443875    -0.05200
C1098       C  0.31762321  0.62159769  0.30168644    -0.05100
C1099       C  0.33631669  0.59327475  0.30396877    -0.23300
C1100       C  0.33713069  0.57095511  0.27841633     0.18900
C1101       C  0.31854823  0.57713786  0.25055460     0.16100
C1102       C  0.29870604  0.60493445  0.24903757    -0.18300
C1103       C  0.32044099  0.55565007  0.22451550    -0.20200
C1104       C  0.34043413  0.52825469  0.22605386    -0.12700
C1105       C  0.35884049  0.52101515  0.25385899     0.04000
C1106       C  0.35627523  0.54268428  0.28030596    -0.24900
H1107       H  0.31820358  0.63899806  0.32119764     0.09000
H1108       H  0.35069525  0.58918648  0.32540889     0.12600
H1109       H  0.28466193  0.60981302  0.22750002     0.12600
H1110       H  0.30649759  0.56005530  0.20284584     0.12300
H1111       H  0.34115986  0.51208464  0.20550861     0.12900
H1112       H  0.36824977  0.53766175  0.30285855     0.14800
C1113       C  0.14301941  0.96376470  0.24716837    -0.05200
C1114       C  0.14541683  0.94780435  0.27734291    -0.05100
C1115       C  0.16085480  0.91762741  0.28024784    -0.23300
C1116       C  0.17491125  0.90256867  0.25323804     0.18900
C1117       C  0.17586937  0.91926920  0.22369744     0.16100
C1118       C  0.16142480  0.95006105  0.22134943    -0.18300
C1119       C  0.19024977  0.90440768  0.19656789    -0.20200
C1120       C  0.20261843  0.87277125  0.19849377    -0.12700
C1121       C  0.20121540  0.85553873  0.22769573     0.04000
C1122       C  0.18775644  0.87104280  0.25516582    -0.24900
H1123       H  0.13472638  0.95814871  0.29887379     0.09000
H1124       H  0.16094578  0.90562153  0.30355318     0.12600
H1125       H  0.16391175  0.96210576  0.19847360     0.12600
H1126       H  0.19121489  0.91698887  0.17357711     0.12300
H1127       H  0.21297026  0.86170741  0.17709990     0.12900
H1128       H  0.18668884  0.85838954  0.27810692     0.14800
C1129       C  0.02527530  0.74954265  0.34917329    -0.05200
C1130       C  0.04467485  0.77739229  0.34522464    -0.05100
C1131       C  0.07266209  0.77681109  0.32651899    -0.23300
C1132       C  0.08342770  0.74805590  0.31241442     0.18900
C1133       C  0.06479372  0.71978276  0.31510959     0.16100
C1134       C  0.03509050  0.72101614  0.33232146    -0.18300
C1135       C  0.07721712  0.69071119  0.30191431    -0.20200
C1136       C  0.10839613  0.68969495  0.28762107    -0.12700
C1137       C  0.12720204  0.71791917  0.28573821     0.04000
C1138       C  0.11361595  0.74713166  0.29717724    -0.24900
H1139       H  0.03958717  0.79990054  0.35727709     0.09000
H1140       H  0.08697326  0.79867083  0.32464773     0.12600
H1141       H  0.02085274  0.69918167  0.33473425     0.12600
H1142       H  0.06338984  0.66857222  0.30374616     0.12300
H1143       H  0.11804869  0.66687764  0.27893860     0.12900
H1144       H  0.12724511  0.76944996  0.29561324     0.14800
C1145       C  0.99606500  0.61075005  0.45637096    -0.05200
C1146       C  0.96473065  0.61878067  0.44538255    -0.05100
C1147       C  0.95920709  0.64636423  0.42723918    -0.23300
C1148       C  0.98459255  0.66743974  0.42056355     0.18900
C1149       C  0.01561671  0.66159003  0.43369135     0.16100
C1150       C  0.02143481  0.63286882  0.45144005    -0.18300
C1151       C  0.04019917  0.68413517  0.42783349    -0.20200
C1152       C  0.03388783  0.71195302  0.40936535    -0.12700
C1153       C  0.00304834  0.71766549  0.39542948     0.04000
C1154       C  0.97904811  0.69409643  0.40059753    -0.24900
H1155       H  0.94438981  0.60279742  0.44951957     0.09000
H1156       H  0.93505711  0.65094716  0.41803257     0.12600
H1157       H  0.04558623  0.62715387  0.45997603     0.12600
H1158       H  0.06422532  0.68038335  0.43762629     0.12300
H1159       H  0.05325799  0.72917640  0.40573550     0.12900
H1160       H  0.95569508  0.69568079  0.38918985     0.14800
C1161       C  0.99605569  0.77951554  0.39574180    -0.05200
C1162       C  0.00187368  0.77943372  0.42941019    -0.05100
C1163       C  0.99787110  0.80750658  0.44783091    -0.23300
C1164       C  0.98678180  0.83620131  0.43356307     0.18900
C1165       C  0.97969939  0.83665456  0.40033601     0.16100
C1166       C  0.98490726  0.80887548  0.38177468    -0.18300
C1167       C  0.96746027  0.86492313  0.38608608    -0.20200
C1168       C  0.96346155  0.89295593  0.40440294    -0.12700
C1169       C  0.97195397  0.89333105  0.43723719     0.04000
C1170       C  0.98300521  0.86456179  0.45184674    -0.24900
H1171       H  0.00900516  0.75786113  0.44225308     0.09000
H1172       H  0.00297987  0.80659866  0.47345034     0.12600
H1173       H  0.97962120  0.80978521  0.35617697     0.12600
H1174       H  0.96154345  0.86553453  0.36063546     0.12300
H1175       H  0.95506719  0.91474924  0.39243202     0.12900
H1176       H  0.98953743  0.86444938  0.47716168     0.14800
C1177       C  0.74102355  0.15002860  0.47656777    -0.05200
C1178       C  0.71521699  0.15249319  0.45439386    -0.05100
C1179       C  0.71698994  0.17276282  0.42777129    -0.23300
C1180       C  0.74548564  0.18930912  0.42064635     0.18900
C1181       C  0.77292614  0.18547908  0.44024567     0.16100
C1182       C  0.77041189  0.16633340  0.46848376    -0.18300
C1183       C  0.80217796  0.20044123  0.43064714    -0.20200
C1184       C  0.80420192  0.21757280  0.40109707    -0.12700
C1185       C  0.77662110  0.22095539  0.38155858     0.04000
C1186       C  0.74709374  0.20811357  0.39284462    -0.24900
H1187       H  0.69310241  0.13902537  0.45689935     0.09000
H1188       H  0.69617953  0.17459426  0.41197946     0.12600
H1189       H  0.79117588  0.16408290  0.48424790     0.12600
H1190       H  0.82372019  0.19774775  0.44525216     0.12300
H1191       H  0.82730054  0.22705611  0.39310733     0.12900
H1192       H  0.72518721  0.21084175  0.37871003     0.14800
C1193       C  0.87153622  0.04508298  0.47659500    -0.05200
C1194       C  0.85105881  0.04421669  0.44957722    -0.05100
C1195       C  0.81961669  0.05780151  0.45118929    -0.23300
C1196       C  0.80832159  0.07281065  0.47970886     0.18900
C1197       C  0.82857331  0.07293670  0.50693330     0.16100
C1198       C  0.85941235  0.05876806  0.50540376    -0.18300
C1199       C  0.81846454  0.08849043  0.53513189    -0.20200
C1200       C  0.78936121  0.10561369  0.53605935    -0.12700
C1201       C  0.76834673  0.10669388  0.50917881     0.04000
C1202       C  0.77792049  0.08883063  0.48128194    -0.24900
H1203       H  0.85950428  0.03361999  0.42715413     0.09000
H1204       H  0.80451041  0.05735836  0.42989885     0.12600
H1205       H  0.87443502  0.05940967  0.52677777     0.12600
H1206       H  0.83389744  0.08875696  0.55622461     0.12300
H1207       H  0.78452833  0.11870090  0.55801115     0.12900
H1208       H  0.76253418  0.08910902  0.46017033     0.14800
C1209       C  0.61149019  0.03030608  0.51807929    -0.05200
C1210       C  0.64002516  0.01183724  0.51424625    -0.05100
C1211       C  0.67039738  0.02687106  0.51210843    -0.23300
C1212       C  0.67283860  0.06077742  0.51295409     0.18900
C1213       C  0.64428977  0.07943756  0.51693457     0.16100
C1214       C  0.61401870  0.06418440  0.51993172    -0.18300
C1215       C  0.64628828  0.11315333  0.51728908    -0.20200
C1216       C  0.67614109  0.12835444  0.51373253    -0.12700
C1217       C  0.70536815  0.11055533  0.50953131     0.04000
C1218       C  0.70316759  0.07629709  0.50962430    -0.24900
H1219       H  0.63880191  0.98572146  0.51252028     0.09000
H1220       H  0.69190677  0.01198076  0.50908604     0.12600
H1221       H  0.59223622  0.07883212  0.52229145     0.12600
H1222       H  0.62466893  0.12790609  0.52026592     0.12300
H1223       H  0.67654125  0.15456310  0.51428373     0.12900
H1224       H  0.72471316  0.06145700  0.50729606     0.14800
C1225       C  0.13885600  0.53485966  0.73814406    -0.05200
C1226       C  0.12190855  0.56382495  0.73020210    -0.05100
C1227       C  0.13762294  0.59297090  0.72555564    -0.23300
C1228       C  0.17101924  0.59479710  0.72924363     0.18900
C1229       C  0.18909428  0.56663020  0.73681059     0.16100
C1230       C  0.17306652  0.53652743  0.74042440    -0.18300
C1231       C  0.22272373  0.56949527  0.74127391    -0.20200
C1232       C  0.23770535  0.59997477  0.73948178    -0.12700
C1233       C  0.21948185  0.62805390  0.73238941     0.04000
C1234       C  0.18623777  0.62486369  0.72648001    -0.24900
H1235       H  0.09575648  0.56389665  0.72805612     0.09000
H1236       H  0.12339381  0.61433923  0.71982114     0.12600
H1237       H  0.18729135  0.51504898  0.74515839     0.12600
H1238       H  0.23725574  0.54838818  0.74712685     0.12300
H1239       H  0.26340599  0.60164968  0.74431095     0.12900
H1240       H  0.17167109  0.64614618  0.72125043     0.14800
C1241       C  0.13666449  0.47078223  0.74609759    -0.05200
C1242       C  0.12746924  0.44369483  0.72723487    -0.05100
C1243       C  0.14024247  0.41314583  0.73226411    -0.23300
C1244       C  0.16263612  0.40772209  0.75658045     0.18900
C1245       C  0.17245785  0.43331016  0.77660253     0.16100
C1246       C  0.15879934  0.46471357  0.77178593    -0.18300
C1247       C  0.19557675  0.42650774  0.80081284    -0.20200
C1248       C  0.20920634  0.39505819  0.80405944    -0.12700
C1249       C  0.19936658  0.36981432  0.78356208     0.04000
C1250       C  0.17527345  0.37664582  0.76065216    -0.24900
H1251       H  0.10893373  0.44498656  0.70899994     0.09000
H1252       H  0.13215952  0.39345218  0.71706800     0.12600
H1253       H  0.16499821  0.48414663  0.78809801     0.12600
H1254       H  0.20367278  0.44561001  0.81666845     0.12300
H1255       H  0.22784356  0.39075406  0.82186593     0.12900
H1256       H  0.16673031  0.35768021  0.74479719     0.14800
C1257       C  0.09968461  0.50306289  0.70906975    -0.05200
C1258       C  0.11929140  0.50186696  0.68091412    -0.05100
C1259       C  0.10618653  0.50458919  0.65032216    -0.23300
C1260       C  0.07283358  0.50787476  0.64651947     0.18900
C1261       C  0.05217740  0.50784273  0.67388682     0.16100
C1262       C  0.06569654  0.50585355  0.70518861    -0.18300
C1263       C  0.01847100  0.50968009  0.66915464    -0.20200
C1264       C  0.00568203  0.51106200  0.63776497    -0.12700
C1265       C  0.02643713  0.51183154  0.61070742     0.04000
C1266       C  0.05997497  0.51057623  0.61546484    -0.24900
H1267       H  0.14537862  0.49951071  0.68286185     0.09000
H1268       H  0.12228174  0.50411593  0.62955256     0.12600
H1269       H  0.04987319  0.50696609  0.72606366     0.12600
H1270       H  0.00202847  0.50942916  0.68963180     0.12300
H1271       H  0.97965073  0.51149238  0.63460526     0.12900
H1272       H  0.07618364  0.51021885  0.59474661     0.14800
C1273       C  0.03099291  0.48304302  0.87538428    -0.05200
C1274       C  0.02757934  0.45552160  0.85575785    -0.05100
C1275       C  0.04114826  0.45497052  0.82437651    -0.23300
C1276       C  0.05881392  0.48162986  0.81246616     0.18900
C1277       C  0.06161086  0.50923023  0.83211171     0.16100
C1278       C  0.04721572  0.51004032  0.86259029    -0.18300
C1279       C  0.08032820  0.53524635  0.82202453    -0.20200
C1280       C  0.09779039  0.53364096  0.79345621    -0.12700
C1281       C  0.09544227  0.50679597  0.77228677     0.04000
C1282       C  0.07486303  0.48100425  0.78213937    -0.24900
H1283       H  0.01511065  0.43441108  0.86482154     0.09000
H1284       H  0.03869066  0.43329622  0.80980909     0.12600
H1285       H  0.04992818  0.53183244  0.87699156     0.12600
H1286       H  0.08306956  0.55641352  0.83731917     0.12300
H1287       H  0.11401177  0.55351600  0.78938757     0.12900
H1288       H  0.07281000  0.45968540  0.76700969     0.14800
C1289       C  0.28153219  0.70778716  0.86583608    -0.05200
C1290       C  0.27943415  0.72763305  0.89333503    -0.05100
C1291       C  0.27618454  0.71389565  0.92422825    -0.23300
C1292       C  0.27400609  0.68013301  0.92802472     0.18900
C1293       C  0.27680327  0.66021703  0.90050302     0.16100
C1294       C  0.28116792  0.67401493  0.86993331    -0.18300
C1295       C  0.27422158  0.62671961  0.90365158    -0.20200
C1296       C  0.26756951  0.61298740  0.93356128    -0.12700
C1297       C  0.26325277  0.63216065  0.96159055     0.04000
C1298       C  0.26826004  0.66598193  0.95856071    -0.24900
H1299       H  0.27960213  0.75373138  0.89089831     0.09000
H1300       H  0.27418960  0.72970966  0.94498585     0.12600
H1301       H  0.28249918  0.65826883  0.84904828     0.12600
H1302       H  0.27657537  0.61107546  0.88278507     0.12300
H1303       H  0.26498459  0.58694212  0.93483346     0.12900
H1304       H  0.26775277  0.68153514  0.97946703     0.14800
C1305       C  0.11584573  0.53786445  0.01484427    -0.05200
C1306       C  0.13555202  0.53221454  0.04192202    -0.05100
C1307       C  0.16742908  0.54437797  0.04279722    -0.23300
C1308       C  0.17986975  0.56264806  0.01677783     0.18900
C1309       C  0.16010763  0.56795318  0.98966542     0.16100
C1310       C  0.12885426  0.55537929  0.98871641    -0.18300
C1311       C  0.17116261  0.58689350  0.96408024    -0.20200
C1312       C  0.20141081  0.60122913  0.96528111    -0.12700
C1313       C  0.22272121  0.59583736  0.99146168     0.04000
C1314       C  0.21115869  0.57642977  0.01746693    -0.24900
H1315       H  0.12630624  0.51870179  0.06237388     0.09000
H1316       H  0.18210764  0.53996284  0.06396439     0.12600
H1317       H  0.11430944  0.56011420  0.96748802     0.12600
H1318       H  0.15580989  0.59171702  0.94344415     0.12300
H1319       H  0.20697871  0.61758353  0.94572718     0.12900
H1320       H  0.22627454  0.57274535  0.03846903     0.14800
C1321       C  0.40144332  0.55045827  0.97920237    -0.05200
C1322       C  0.40226318  0.58444545  0.97930409    -0.05100
C1323       C  0.37426898  0.60264127  0.98498675    -0.23300
C1324       C  0.34458419  0.58723850  0.99017809     0.18900
C1325       C  0.34278041  0.55318872  0.98811355     0.16100
C1326       C  0.37143562  0.53479279  0.98314195    -0.18300
C1327       C  0.31242325  0.53836137  0.99154553    -0.20200
C1328       C  0.28411969  0.55711945  0.99538527    -0.12700
C1329       C  0.28559552  0.59127146  0.99757673     0.04000
C1330       C  0.31661922  0.60560537  0.99668171    -0.24900
H1331       H  0.42521442  0.59693997  0.97728576     0.09000
H1332       H  0.37599561  0.62878262  0.98601879     0.12600
H1333       H  0.37067026  0.50859011  0.98404467     0.12600
H1334       H  0.31037633  0.51228883  0.98987154     0.12300
H1335       H  0.26125162  0.54460721  0.99505226     0.12900
H1336       H  0.31852733  0.63173133  0.99812846     0.14800
C1337       C  0.25103822  0.63687823  0.02347337    -0.05200
C1338       C  0.22755113  0.66196842  0.02244428    -0.05100
C1339       C  0.22031593  0.68090137  0.04961787    -0.23300
C1340       C  0.23447103  0.67384438  0.07949419     0.18900
C1341       C  0.25638818  0.64749125  0.08164755     0.16100
C1342       C  0.26512048  0.62986261  0.05378984    -0.18300
C1343       C  0.26857571  0.63851662  0.11188368    -0.20200
C1344       C  0.25944839  0.65558815  0.13958331    -0.12700
C1345       C  0.23877638  0.68271474  0.13772690     0.04000
C1346       C  0.22648501  0.69198958  0.10742565    -0.24900
H1347       H  0.21451466  0.66684126  0.00033315     0.09000
H1348       H  0.20273069  0.70036116  0.04748025     0.12600
H1349       H  0.28153863  0.60950960  0.05639268     0.12600
H1350       H  0.28505126  0.61812497  0.11418160     0.12300
H1351       H  0.26947973  0.64815904  0.16258112     0.12900
H1352       H  0.21036141  0.71272468  0.10573912     0.14800
C1353       C  0.75600598  0.34180683  0.03578563    -0.05200
C1354       C  0.75479417  0.30770256  0.03327798    -0.05100
C1355       C  0.75185082  0.28830023  0.06102992    -0.23300
C1356       C  0.74874905  0.30251440  0.09167553     0.18900
C1357       C  0.74908342  0.33656158  0.09420046     0.16100
C1358       C  0.75349203  0.35556725  0.06682038    -0.18300
C1359       C  0.74457086  0.35147235  0.12406905    -0.20200
C1360       C  0.74019627  0.33284706  0.15157082    -0.12700
C1361       C  0.74097337  0.29882711  0.15002056     0.04000
C1362       C  0.74523025  0.28361573  0.11986287    -0.24900
H1363       H  0.75531037  0.29573617  0.01015090     0.09000
H1364       H  0.75119860  0.26222349  0.05843591     0.12600
H1365       H  0.75400518  0.38169466  0.06939788     0.12600
H1366       H  0.74457259  0.37762315  0.12622374     0.12300
H1367       H  0.73756185  0.34531936  0.17442376     0.12900
H1368       H  0.74597822  0.25743373  0.11840854     0.14800
C1369       C  0.78728910  0.38689354  0.00746419    -0.05200
C1370       C  0.81344561  0.37970378  0.02839418    -0.05100
C1371       C  0.84200459  0.39732928  0.02744828    -0.23300
C1372       C  0.84595448  0.42227508  0.00510850     0.18900
C1373       C  0.82078631  0.42987871  0.98339447     0.16100
C1374       C  0.79187103  0.41186717  0.98437971    -0.18300
C1375       C  0.82536045  0.45505155  0.96087376    -0.20200
C1376       C  0.85476325  0.47205550  0.95977669    -0.12700
C1377       C  0.87986868  0.46378017  0.98097899     0.04000
C1378       C  0.87520720  0.43909843  0.00366258    -0.24900
H1379       H  0.81287576  0.35967276  0.04514458     0.09000
H1380       H  0.86138401  0.39091099  0.04387274     0.12600
H1381       H  0.77288817  0.41709718  0.96711897     0.12600
H1382       H  0.80637827  0.46135030  0.94398184     0.12300
H1383       H  0.85818142  0.49101163  0.94201550     0.12900
H1384       H  0.89470585  0.43273287  0.02001787     0.14800
C1385       C  0.63043037  0.46406885  0.03187069    -0.05200
C1386       C  0.65881598  0.48273125  0.03035911    -0.05100
C1387       C  0.68924696  0.46784939  0.02633944    -0.23300
C1388       C  0.69175466  0.43410428  0.02271995     0.18900
C1389       C  0.66329350  0.41533187  0.02422990     0.16100
C1390       C  0.63310448  0.43024692  0.02942932    -0.18300
C1391       C  0.66519905  0.38192558  0.01971058    -0.20200
C1392       C  0.69490432  0.36714696  0.01338768    -0.12700
C1393       C  0.72403955  0.38507274  0.01169242     0.04000
C1394       C  0.72202284  0.41888135  0.01722054    -0.24900
H1395       H  0.65741694  0.50887790  0.03174794     0.09000
H1396       H  0.71069077  0.48281267  0.02512510     0.12600
H1397       H  0.61142304  0.41553508  0.02981435     0.12600
H1398       H  0.64359470  0.36715204  0.02072111     0.12300
H1399       H  0.69530588  0.34118046  0.00982452     0.12900
H1400       H  0.74356252  0.43355814  0.01770693     0.14800
C1401       C  0.35291163  0.97487502  0.75680289    -0.05200
C1402       C  0.32931408  0.97207866  0.78162169    -0.05100
C1403       C  0.31256802  0.94311983  0.78697962    -0.23300
C1404       C  0.31963126  0.91567175  0.76837480     0.18900
C1405       C  0.34425422  0.91766521  0.74457843     0.16100
C1406       C  0.36077798  0.94669897  0.73925391    -0.18300
C1407       C  0.35231461  0.89047247  0.72629885    -0.20200
C1408       C  0.33568001  0.86174781  0.73082564    -0.12700
C1409       C  0.31045821  0.85921331  0.75380458     0.04000
C1410       C  0.30281925  0.88626097  0.77306942    -0.24900
H1411       H  0.32362046  0.99270847  0.79675962     0.09000
H1412       H  0.29421518  0.94220008  0.80576015     0.12600
H1413       H  0.38037872  0.94661012  0.72185757     0.12600
H1414       H  0.37135752  0.89144894  0.70819325     0.12300
H1415       H  0.34272220  0.84128055  0.71599271     0.12900
H1416       H  0.28365186  0.88464113  0.79098285     0.14800
C1417       C  0.30670024  0.15047107  0.72598424    -0.05200
C1418       C  0.34072552  0.15205734  0.72449063    -0.05100
C1419       C  0.35957891  0.12424664  0.72822784    -0.23300
C1420       C  0.34477046  0.09424003  0.73297338     0.18900
C1421       C  0.31072041  0.09181202  0.73173204     0.16100
C1422       C  0.29176158  0.12001567  0.72844296    -0.18300
C1423       C  0.29631917  0.06134599  0.73479678    -0.20200
C1424       C  0.31536669  0.03379144  0.74048031    -0.12700
C1425       C  0.34925393  0.03625519  0.74490201     0.04000
C1426       C  0.36355744  0.06684841  0.73984603    -0.24900
H1427       H  0.35294380  0.17512574  0.72266969     0.09000
H1428       H  0.38573895  0.12640209  0.72858725     0.12600
H1429       H  0.26555899  0.11842661  0.72934663     0.12600
H1430       H  0.27028377  0.05880108  0.73282524     0.12300
H1431       H  0.30309181  0.01083198  0.74126070     0.12900
H1432       H  0.38960273  0.06935963  0.74190120     0.14800
C1433       C  0.38983794  0.01113480  0.78481250    -0.05200
C1434       C  0.38285745  0.03651349  0.80662290    -0.05100
C1435       C  0.39885091  0.03860092  0.83605134    -0.23300
C1436       C  0.42160913  0.01503057  0.84491949     0.18900
C1437       C  0.42844586  0.98896334  0.82405504     0.16100
C1438       C  0.41244506  0.98707814  0.79439090    -0.18300
C1439       C  0.45083018  0.96502274  0.83346418    -0.20200
C1440       C  0.46585148  0.96668230  0.86364523    -0.12700
C1441       C  0.45888892  0.99247107  0.88464413     0.04000
C1442       C  0.43697791  0.01675908  0.87479255    -0.24900
H1443       H  0.36451614  0.05458502  0.80172853     0.09000
H1444       H  0.39294699  0.05842695  0.85218449     0.12600
H1445       H  0.41754564  0.96684481  0.77848703     0.12600
H1446       H  0.45637680  0.94482364  0.81768393     0.12300
H1447       H  0.48260965  0.94769484  0.87066058     0.12900
H1448       H  0.43112190  0.03677302  0.89072794     0.14800
C1449       C  0.39586675  0.00621736  0.72340330    -0.05200
C1450       C  0.42916664  0.01408454  0.72595963    -0.05100
C1451       C  0.44920765  0.01563499  0.69864170    -0.23300
C1452       C  0.43660047  0.00994742  0.66791013     0.18900
C1453       C  0.40324776  0.00297180  0.66481388     0.16100
C1454       C  0.38330237  0.00155612  0.69219868    -0.18300
C1455       C  0.39024486  0.99719026  0.63432674    -0.20200
C1456       C  0.41027650  0.99721925  0.60723933    -0.12700
C1457       C  0.44357891  0.00354643  0.60993127     0.04000
C1458       C  0.45668807  0.01063862  0.64025548    -0.24900
H1459       H  0.43998106  0.02023120  0.74878150     0.09000
H1460       H  0.47456832  0.02155919  0.70157305     0.12600
H1461       H  0.35766857  0.99670192  0.68938469     0.12600
H1462       H  0.36472493  0.99188579  0.63149578     0.12300
H1463       H  0.39981206  0.99163511  0.58397677     0.12900
H1464       H  0.48243013  0.01515667  0.64245806     0.14800
C1465       C  0.46900413  0.76010945  0.15208499    -0.05200
C1466       C  0.47144170  0.75948958  0.18611848    -0.05100
C1467       C  0.44354119  0.76069791  0.20566783    -0.23300
C1468       C  0.41272503  0.76421601  0.19184318     0.18900
C1469       C  0.41021701  0.76729705  0.15806948     0.16100
C1470       C  0.43782159  0.76469903  0.13873856    -0.18300
C1471       C  0.38003256  0.77253703  0.14382235    -0.20200
C1472       C  0.35214328  0.77319906  0.16273452    -0.12700
C1473       C  0.35372996  0.76803388  0.19627363     0.04000
C1474       C  0.38431891  0.76428139  0.21089830    -0.24900
H1475       H  0.49453921  0.75841088  0.19809704     0.09000
H1476       H  0.44611338  0.75920852  0.23164153     0.12600
H1477       H  0.43515139  0.76606718  0.11273751     0.12600
H1478       H  0.37788945  0.77543502  0.11790825     0.12300
H1479       H  0.32909076  0.77619595  0.15068590     0.12900
H1480       H  0.38594683  0.76054193  0.23674103     0.14800
C1481       C  0.52873335  0.62720037  0.04256003    -0.05200
C1482       C  0.55301033  0.65007821  0.03602100    -0.05100
C1483       C  0.55062148  0.68161674  0.04897952    -0.23300
C1484       C  0.52427315  0.69039182  0.06909816     0.18900
C1485       C  0.50009033  0.66733579  0.07539680     0.16100
C1486       C  0.50220494  0.63659033  0.06194491    -0.18300
C1487       C  0.47450751  0.67454358  0.09625812    -0.20200
C1488       C  0.47332911  0.70391637  0.11221846    -0.12700
C1489       C  0.49687347  0.72813125  0.10668206     0.04000
C1490       C  0.52207879  0.72105301  0.08410968    -0.24900
H1491       H  0.57369178  0.64361618  0.02113173     0.09000
H1492       H  0.56965606  0.69885460  0.04385937     0.12600
H1493       H  0.48317580  0.61949347  0.06768672     0.12600
H1494       H  0.45603717  0.65671006  0.10154752     0.12300
H1495       H  0.45428007  0.70628150  0.12996120     0.12900
H1496       H  0.54087952  0.73873277  0.07969737     0.14800
C1497       C  0.47163088  0.88680020  0.03483859    -0.05200
C1498       C  0.47327613  0.85931795  0.01485493    -0.05100
C1499       C  0.47776992  0.82834687  0.02830476    -0.23300
C1500       C  0.48209214  0.82462913  0.06177125     0.18900
C1501       C  0.48057820  0.85238630  0.08162760     0.16100
C1502       C  0.47437603  0.88280316  0.06827672    -0.18300
C1503       C  0.48655375  0.84980019  0.11455932    -0.20200
C1504       C  0.49375563  0.81997006  0.12803225    -0.12700
C1505       C  0.49424502  0.79133704  0.10932585     0.04000
C1506       C  0.48835286  0.79401101  0.07578380    -0.24900
H1507       H  0.47183825  0.86188592  0.98888686     0.09000
H1508       H  0.47904855  0.80753260  0.01247446     0.12600
H1509       H  0.47410515  0.90382729  0.08393310     0.12600
H1510       H  0.48595113  0.87096811  0.12997659     0.12300
H1511       H  0.49825107  0.81893798  0.15376162     0.12900
H1512       H  0.48823360  0.77271105  0.06066422     0.14800
C1513       C  0.60870876  0.94437846  0.98768229    -0.05200
C1514       C  0.60493579  0.91075590  0.99165365    -0.05100
C1515       C  0.63180987  0.89020858  0.99399993    -0.23300
C1516       C  0.66318478  0.90270148  0.99170471     0.18900
C1517       C  0.66741264  0.93629122  0.98685863     0.16100
C1518       C  0.64016717  0.95711098  0.98550245    -0.18300
C1519       C  0.69878828  0.94831554  0.98282262    -0.20200
C1520       C  0.72562769  0.92747982  0.98386768    -0.12700
C1521       C  0.72217451  0.89400956  0.99067903     0.04000
C1522       C  0.69030758  0.88202327  0.99380130    -0.24900
H1523       H  0.58097483  0.90035435  0.99382579     0.09000
H1524       H  0.62801574  0.86451440  0.99755514     0.12600
H1525       H  0.64337314  0.98294333  0.98230310     0.12600
H1526       H  0.70257854  0.97380642  0.97800673     0.12300
H1527       H  0.74887921  0.93795822  0.97825283     0.12900
H1528       H  0.68673078  0.85630134  0.99749607     0.14800
C1529       C  0.78432578  0.88709715  0.98922922    -0.05200
C1530       C  0.80934698  0.87795931  0.96759576    -0.05100
C1531       C  0.83986911  0.89225109  0.96913306    -0.23300
C1532       C  0.84612763  0.91634301  0.99194223     0.18900
C1533       C  0.82159353  0.92590204  0.01380478     0.16100
C1534       C  0.79156471  0.91030379  0.01320080    -0.18300
C1535       C  0.82744861  0.95110985  0.03571213    -0.20200
C1536       C  0.85744819  0.96676518  0.03581116    -0.12700
C1537       C  0.88224588  0.95646111  0.01492935     0.04000
C1538       C  0.87651888  0.93113626  0.99318108    -0.24900
H1539       H  0.80603723  0.85892716  0.95009140     0.09000
H1540       H  0.85861156  0.88446050  0.95238658     0.12600
H1541       H  0.77328447  0.91675405  0.03099802     0.12600
H1542       H  0.80870503  0.95899144  0.05240426     0.12300
H1543       H  0.86150144  0.98646724  0.05248730     0.12900
H1544       H  0.89553409  0.92360003  0.97658156     0.14800
C1545       C  0.75372441  0.84913458  0.02190910    -0.05200
C1546       C  0.77769429  0.82450433  0.02440531    -0.05100
C1547       C  0.78285717  0.80755210  0.05328127    -0.23300
C1548       C  0.76523843  0.81560889  0.08112621     0.18900
C1549       C  0.74210509  0.84097547  0.07936991     0.16100
C1550       C  0.73641796  0.85727664  0.05017505    -0.18300
C1551       C  0.72525893  0.85033131  0.10708161    -0.20200
C1552       C  0.73064641  0.83444139  0.13611858    -0.12700
C1553       C  0.75283572  0.80835216  0.13848944     0.04000
C1554       C  0.77050471  0.79923140  0.11075327    -0.24900
H1555       H  0.79268329  0.81845615  0.00372177     0.09000
H1556       H  0.80111225  0.78860287  0.05395196     0.12600
H1557       H  0.71947139  0.87734304  0.05026015     0.12600
H1558       H  0.70776412  0.87000829  0.10635429     0.12300
H1559       H  0.71689814  0.84269532  0.15691011     0.12900
H1560       H  0.78779279  0.77942805  0.11208588     0.14800
C1561       C  0.71432004  0.88099234  0.27470715    -0.05200
C1562       C  0.71342299  0.89869006  0.30357608    -0.05100
C1563       C  0.69822467  0.92924827  0.30445089    -0.23300
C1564       C  0.68339047  0.94205503  0.27660021     0.18900
C1565       C  0.68583901  0.92501827  0.24729742     0.16100
C1566       C  0.70188971  0.89520458  0.24640348    -0.18300
C1567       C  0.67086748  0.93718622  0.21953202    -0.20200
C1568       C  0.65134829  0.96478488  0.22116836    -0.12700
C1569       C  0.64635992  0.98102610  0.25070841     0.04000
C1570       C  0.66481462  0.97064723  0.27775044    -0.24900
H1571       H  0.72292342  0.88828565  0.32561711     0.09000
H1572       H  0.69668865  0.94209965  0.32717722     0.12600
H1573       H  0.70303825  0.88207482  0.22375960     0.12600
H1574       H  0.67337906  0.92471120  0.19665187     0.12300
H1575       H  0.64040859  0.97313206  0.19902716     0.12900
H1576       H  0.66273477  0.98370329  0.30034387     0.14800
C1577       C  0.86489348  0.77005108  0.28666725    -0.05200
C1578       C  0.89139802  0.76499893  0.26570345    -0.05100
C1579       C  0.92234470  0.75822421  0.27799529    -0.23300
C1580       C  0.92723649  0.75580982  0.31146102     0.18900
C1581       C  0.90056236  0.76042154  0.33249361     0.16100
C1582       C  0.86990426  0.76785989  0.32010253    -0.18300
C1583       C  0.90476859  0.75750660  0.36573386    -0.20200
C1584       C  0.93533571  0.75139087  0.37827841    -0.12700
C1585       C  0.96301599  0.74790392  0.35811662     0.04000
C1586       C  0.95829071  0.74952975  0.32428805    -0.24900
H1587       H  0.88814092  0.76594464  0.23980179     0.09000
H1588       H  0.94236355  0.75461170  0.26132812     0.12600
H1589       H  0.84966257  0.77092004  0.33664263     0.12600
H1590       H  0.88449984  0.76071981  0.38219330     0.12300
H1591       H  0.93778541  0.75071457  0.40429827     0.12900
H1592       H  0.97861758  0.74735157  0.30783426     0.14800
C1593       C  0.79884299  0.64910301  0.24822892    -0.05200
C1594       C  0.81942923  0.64758643  0.27511397    -0.05100
C1595       C  0.83707278  0.61938269  0.28213586    -0.23300
C1596       C  0.83455349  0.59204433  0.26229240     0.18900
C1597       C  0.81342317  0.59325607  0.23548311     0.16100
C1598       C  0.79564436  0.62172805  0.22860245    -0.18300
C1599       C  0.81043525  0.56595754  0.21595930    -0.20200
C1600       C  0.82936727  0.53848651  0.22173757    -0.12700
C1601       C  0.85243413  0.53729022  0.24697977     0.04000
C1602       C  0.85320586  0.56385153  0.26844507    -0.24900
H1603       H  0.82183921  0.66841076  0.29076608     0.09000
H1604       H  0.85293862  0.61909707  0.30288456     0.12600
H1605       H  0.77941862  0.62261588  0.20811850     0.12600
H1606       H  0.79400122  0.56607762  0.19564466     0.12300
H1607       H  0.82719193  0.51831657  0.20523812     0.12900
H1608       H  0.86827442  0.56318012  0.28964024     0.14800
C1609       C  0.63284981  0.73321920  0.21074115    -0.05200
C1610       C  0.61043674  0.70914499  0.21921750    -0.05100
C1611       C  0.57991145  0.70825566  0.20407142    -0.23300
C1612       C  0.57152875  0.73158209  0.18057784     0.18900
C1613       C  0.59463448  0.75492301  0.17159510     0.16100
C1614       C  0.62490079  0.75519471  0.18610696    -0.18300
C1615       C  0.58729205  0.77822418  0.14842883    -0.20200
C1616       C  0.55671088  0.77956552  0.13497979    -0.12700
C1617       C  0.53200292  0.75780469  0.14448042     0.04000
C1618       C  0.54059983  0.73252211  0.16616358    -0.24900
H1619       H  0.61609168  0.69180076  0.23801947     0.09000
H1620       H  0.56263579  0.68994585  0.21128880     0.12600
H1621       H  0.64221320  0.77341700  0.17857977     0.12600
H1622       H  0.60524837  0.79572256  0.14075682     0.12300
H1623       H  0.55320790  0.79759272  0.11639323     0.12900
H1624       H  0.52297379  0.71413358  0.17227289     0.14800
C1625       C  0.71561243  0.60027837  0.48951212    -0.05200
C1626       C  0.68540490  0.61653129  0.49151759    -0.05100
C1627       C  0.65644738  0.60022592  0.48785065    -0.23300
C1628       C  0.65657458  0.56697319  0.48230966     0.18900
C1629       C  0.68614661  0.54973145  0.48026457     0.16100
C1630       C  0.71560657  0.56655377  0.48320956    -0.18300
C1631       C  0.68547307  0.51596917  0.47566436    -0.20200
C1632       C  0.65574949  0.49957507  0.47428562    -0.12700
C1633       C  0.62646737  0.51698462  0.47612285     0.04000
C1634       C  0.62726618  0.55072867  0.47949131    -0.24900
H1635       H  0.68438812  0.64240450  0.49564857     0.09000
H1636       H  0.63386728  0.61369535  0.48954135     0.12600
H1637       H  0.73804204  0.55334725  0.47981711     0.12600
H1638       H  0.70785337  0.50218611  0.47408450     0.12300
H1639       H  0.65560652  0.47347167  0.47201626     0.12900
H1640       H  0.60480129  0.56437838  0.48170493     0.14800
C1641       C  0.77881518  0.60259667  0.48968649    -0.05200
C1642       C  0.80412708  0.61219954  0.46864823    -0.05100
C1643       C  0.83352051  0.59580661  0.46787917    -0.23300
C1644       C  0.83912948  0.56988705  0.48874370     0.18900
C1645       C  0.81537167  0.56074344  0.51148246     0.16100
C1646       C  0.78551691  0.57753739  0.51221293    -0.18300
C1647       C  0.82218712  0.53510869  0.53296615    -0.20200
C1648       C  0.85221741  0.51873333  0.53156047    -0.12700
C1649       C  0.87551200  0.52758391  0.50836423     0.04000
C1650       C  0.86860658  0.55340167  0.48730022    -0.24900
H1651       H  0.80185577  0.63290985  0.45283036     0.09000
H1652       H  0.85206439  0.60365915  0.45101042     0.12600
H1653       H  0.76731253  0.57090724  0.52993362     0.12600
H1654       H  0.80436676  0.52777317  0.55078546     0.12300
H1655       H  0.85710034  0.49915749  0.54829037     0.12900
H1656       H  0.88656544  0.56125329  0.46978569     0.14800
C1657       C  0.74235334  0.64246167  0.45990082    -0.05200
C1658       C  0.74157465  0.62539782  0.43032868    -0.05100
C1659       C  0.73513608  0.64084605  0.40142282    -0.23300
C1660       C  0.73015373  0.67417339  0.40074789     0.18900
C1661       C  0.73128537  0.69235210  0.42955214     0.16100
C1662       C  0.73650704  0.67629678  0.45923185    -0.18300
C1663       C  0.72786737  0.72624238  0.42777216    -0.20200
C1664       C  0.72502405  0.74172532  0.39763195    -0.12700
C1665       C  0.72392771  0.72335442  0.36913006     0.04000
C1666       C  0.72540387  0.68955402  0.37120192    -0.24900
H1667       H  0.74559159  0.59946489  0.42978599     0.09000
H1668       H  0.73460499  0.62667673  0.37943784     0.12600
H1669       H  0.73560041  0.69017156  0.48128825     0.12600
H1670       H  0.72876762  0.74079420  0.44946315     0.12300
H1671       H  0.72431654  0.76791335  0.39652057     0.12900
H1672       H  0.72537193  0.67509829  0.34936181     0.14800
C1673       C  0.61271064  0.50244692  0.78367667    -0.05200
C1674       C  0.57866340  0.49851697  0.78267168    -0.05100
C1675       C  0.55974782  0.50016985  0.81081136    -0.23300
C1676       C  0.57420953  0.50555563  0.84081158     0.18900
C1677       C  0.60829878  0.50742767  0.84257092     0.16100
C1678       C  0.62718128  0.50415902  0.81447821    -0.18300
C1679       C  0.62302262  0.51341320  0.87229409    -0.20200
C1680       C  0.60415864  0.51769492  0.90002564    -0.12700
C1681       C  0.57014537  0.51537220  0.89888251     0.04000
C1682       C  0.55528755  0.50898140  0.86906694    -0.24900
H1683       H  0.56617249  0.49378978  0.76038446     0.09000
H1684       H  0.53369498  0.49767465  0.80900141     0.12600
H1685       H  0.65336226  0.50534014  0.81623542     0.12600
H1686       H  0.64915307  0.51507521  0.87407252     0.12300
H1687       H  0.61639485  0.52202387  0.92265843     0.12900
H1688       H  0.52914968  0.50689782  0.86782213     0.14800
C1689       C  0.61489083  0.50255007  0.72093634    -0.05200
C1690       C  0.59113558  0.52641934  0.71428806    -0.05100
C1691       C  0.57139641  0.52436512  0.68681900    -0.23300
C1692       C  0.57541825  0.49882517  0.66475531     0.18900
C1693       C  0.60069667  0.47631690  0.66969432     0.16100
C1694       C  0.62082820  0.47913988  0.69658949    -0.18300
C1695       C  0.60564640  0.45106767  0.64765726    -0.20200
C1696       C  0.58586006  0.44815715  0.62068941    -0.12700
C1697       C  0.56068511  0.47046060  0.61498896     0.04000
C1698       C  0.55538513  0.49574889  0.63740496    -0.24900
H1699       H  0.58707194  0.54604736  0.73113843     0.09000
H1700       H  0.55273942  0.54253703  0.68306670     0.12600
H1701       H  0.64129886  0.46279559  0.69790530     0.12600
H1702       H  0.62497947  0.43355527  0.65120615     0.12300
H1703       H  0.59071939  0.42867024  0.60385480     0.12900
H1704       H  0.53654257  0.51359016  0.63300484     0.14800
C1705       C  0.65671507  0.47279010  0.75565231    -0.05200
C1706       C  0.69095516  0.47372535  0.75716830    -0.05100
C1707       C  0.70956861  0.44551973  0.75330545    -0.23300
C1708       C  0.69455103  0.41562825  0.74828565     0.18900
C1709       C  0.66040545  0.41385277  0.74966922     0.16100
C1710       C  0.64196149  0.44199107  0.75495601    -0.18300
C1711       C  0.64513086  0.38404956  0.74495652    -0.20200
C1712       C  0.66355292  0.35611421  0.73949727    -0.12700
C1713       C  0.69750496  0.35746512  0.73832304     0.04000
C1714       C  0.71298028  0.38734492  0.74268331    -0.24900
H1715       H  0.70378520  0.49611821  0.76072417     0.09000
H1716       H  0.73576189  0.44722710  0.75355410     0.12600
H1717       H  0.61573613  0.44039891  0.75527552     0.12600
H1718       H  0.61895455  0.38224643  0.74598408     0.12300
H1719       H  0.65133316  0.33306447  0.73752199     0.12900
H1720       H  0.73922846  0.38825570  0.74321580     0.14800
C1721       C  0.78724712  0.28924677  0.86938836    -0.05200
C1722       C  0.81219190  0.28196593  0.89123431    -0.05100
C1723       C  0.81114679  0.29475729  0.92282595    -0.23300
C1724       C  0.78503625  0.31467032  0.93286444     0.18900
C1725       C  0.75992160  0.32124256  0.91091642     0.16100
C1726       C  0.76106903  0.30847301  0.87992506    -0.18300
C1727       C  0.73408284  0.34126009  0.91968110    -0.20200
C1728       C  0.73291811  0.35522700  0.95000266    -0.12700
C1729       C  0.75691491  0.34858968  0.97340182     0.04000
C1730       C  0.78344943  0.32844872  0.96404376    -0.24900
H1731       H  0.83250646  0.26697722  0.88380791     0.09000
H1732       H  0.83076230  0.28928737  0.93926415     0.12600
H1733       H  0.74110591  0.31375299  0.86376375     0.12600
H1734       H  0.71500100  0.34692073  0.90264414     0.12300
H1735       H  0.71325062  0.37205826  0.95414121     0.12900
H1736       H  0.80287043  0.32383316  0.98096987     0.14800
C1737       C  0.64964524  0.23573679  0.82634848    -0.05200
C1738       C  0.65094198  0.24210218  0.85961272    -0.05100
C1739       C  0.62283040  0.24938313  0.87701870    -0.23300
C1740       C  0.59282853  0.25064433  0.86143572     0.18900
C1741       C  0.59100865  0.24390379  0.82811076     0.16100
C1742       C  0.61947978  0.23631885  0.81068274    -0.18300
C1743       C  0.56082492  0.24561147  0.81281368    -0.20200
C1744       C  0.53247919  0.25124702  0.83079907    -0.12700
C1745       C  0.53358510  0.25465308  0.86474036     0.04000
C1746       C  0.56452524  0.25762835  0.87897100    -0.24900
H1747       H  0.67400167  0.24235332  0.87199662     0.09000
H1748       H  0.62461238  0.25433476  0.90262417     0.12600
H1749       H  0.61839542  0.23240972  0.78484464     0.12600
H1750       H  0.55903609  0.24200123  0.78699067     0.12300
H1751       H  0.51001078  0.25259880  0.81771212     0.12900
H1752       H  0.56623810  0.26208892  0.90469411     0.14800
C1753       C  0.86111017  0.26999200  0.70164046    -0.05200
C1754       C  0.85854018  0.27322398  0.66793834    -0.05100
C1755       C  0.88563662  0.26965189  0.64811603    -0.23300
C1756       C  0.91605747  0.26346484  0.66156681     0.18900
C1757       C  0.91964885  0.26226396  0.69534732     0.16100
C1758       C  0.89200335  0.26512260  0.71533595    -0.18300
C1759       C  0.95075753  0.25789756  0.70829936    -0.20200
C1760       C  0.97788588  0.25425604  0.68794318    -0.12700
C1761       C  0.97429377  0.25306307  0.65404406     0.04000
C1762       C  0.94282778  0.25820201  0.64150011    -0.24900
H1763       H  0.83520340  0.27681826  0.65659164     0.09000
H1764       H  0.88266307  0.27110329  0.62217713     0.12600
H1765       H  0.89439859  0.26274374  0.74126930     0.12600
H1766       H  0.95419711  0.25778814  0.73420129     0.12300
H1767       H  0.00133749  0.25286722  0.69919474     0.12900
H1768       H  0.93930412  0.25818552  0.61558110     0.14800
C1769       C  0.73683948  0.15228401  0.53850997    -0.05200
C1770       C  0.74121993  0.18626350  0.53700594    -0.05100
C1771       C  0.73857543  0.20553846  0.56463952    -0.23300
C1772       C  0.73024064  0.19183827  0.59444373     0.18900
C1773       C  0.72416939  0.15834750  0.59631771     0.16100
C1774       C  0.72796743  0.13894919  0.56883121    -0.18300
C1775       C  0.71462205  0.14463322  0.62577747    -0.20200
C1776       C  0.71254844  0.16367983  0.65350191    -0.12700
C1777       C  0.72034904  0.19678961  0.65245951     0.04000
C1778       C  0.72843681  0.21090198  0.62251781    -0.24900
H1779       H  0.74648579  0.19867984  0.51472890     0.09000
H1780       H  0.74278742  0.23132834  0.56259022     0.12600
H1781       H  0.72381661  0.11313416  0.57088994     0.12600
H1782       H  0.70947282  0.11899756  0.62755810     0.12300
H1783       H  0.70636158  0.15201492  0.67612449     0.12900
H1784       H  0.73442806  0.23638376  0.62123405     0.14800
C1785       C  0.90478451  0.99237595  0.71270283    -0.05200
C1786       C  0.93760315  0.98241367  0.71518649    -0.05100
C1787       C  0.95597869  0.97482246  0.68767188    -0.23300
C1788       C  0.94147679  0.97451612  0.65720643     0.18900
C1789       C  0.90787664  0.98082747  0.65483437     0.16100
C1790       C  0.89013937  0.99026898  0.68213332    -0.18300
C1791       C  0.89253712  0.97846199  0.62496093    -0.20200
C1792       C  0.91078017  0.97277817  0.59721335    -0.12700
C1793       C  0.94463947  0.96970816  0.59874594     0.04000
C1794       C  0.95993030  0.96918421  0.62894216    -0.24900
H1795       H  0.94929121  0.97989887  0.73832331     0.09000
H1796       H  0.98140795  0.96876455  0.69029905     0.12600
H1797       H  0.86461786  0.99597175  0.67963051     0.12600
H1798       H  0.86667600  0.98258822  0.62281724     0.12300
H1799       H  0.89872432  0.97361763  0.57403379     0.12900
H1800       H  0.98609813  0.96726092  0.63020427     0.14800
C1801       C  0.90190903  0.00751642  0.77341824    -0.05200
C1802       C  0.92932779  0.02788278  0.77240156    -0.05100
C1803       C  0.94583873  0.03608536  0.80053376    -0.23300
C1804       C  0.93354816  0.02686558  0.83068052     0.18900
C1805       C  0.90377842  0.01022333  0.83236278     0.16100
C1806       C  0.88851928  0.00031703  0.80399501    -0.18300
C1807       C  0.88973795  0.00359277  0.86244677    -0.20200
C1808       C  0.90596477  0.01171486  0.89065069    -0.12700
C1809       C  0.93687101  0.02579123  0.88926170     0.04000
C1810       C  0.95037635  0.03392718  0.85917828    -0.24900
H1811       H  0.93841233  0.03712416  0.74965208     0.09000
H1812       H  0.96784014  0.05016842  0.79872544     0.12600
H1813       H  0.86580107  0.98743661  0.80582753     0.12600
H1814       H  0.86659260  0.99143401  0.86418333     0.12300
H1815       H  0.89521874  0.00501720  0.91361732     0.12900
H1816       H  0.97407558  0.04506592  0.85799044     0.14800
C1817       C  0.79497833  0.13041275  0.76877283    -0.05200
C1818       C  0.78120809  0.10423796  0.78544318    -0.05100
C1819       C  0.79420864  0.07294881  0.78198725    -0.23300
C1820       C  0.82058171  0.06721447  0.76105630     0.18900
C1821       C  0.83370812  0.09324944  0.74331646     0.16100
C1822       C  0.82116739  0.12466906  0.74761902    -0.18300
C1823       C  0.85963452  0.08760336  0.72207452    -0.20200
C1824       C  0.87356893  0.05679442  0.71952577    -0.12700
C1825       C  0.86172650  0.03044341  0.73781598     0.04000
C1826       C  0.83469698  0.03619439  0.75835191    -0.24900
H1827       H  0.76080223  0.10812112  0.80156036     0.09000
H1828       H  0.78369174  0.05325913  0.79573144     0.12600
H1829       H  0.83150310  0.14468859  0.73415760     0.12600
H1830       H  0.86999665  0.10734154  0.70826839     0.12300
H1831       H  0.89499590  0.05424244  0.70456866     0.12900
H1832       H  0.82563009  0.01683484  0.77350174     0.14800
C1833       C  0.71631133  0.64054917  0.76991072    -0.05200
C1834       C  0.69616080  0.63627453  0.79694046    -0.05100
C1835       C  0.67570474  0.60936183  0.79892184    -0.23300
C1836       C  0.67546582  0.58616555  0.77408802     0.18900
C1837       C  0.69701502  0.58943451  0.74780979     0.25700
C1838       C  0.71725060  0.61650252  0.74589584    -0.18300
C1839       C  0.69699306  0.56635282  0.72313171    -0.20200
C1840       C  0.67644140  0.53967744  0.72488662    -0.12700
C1841       C  0.65518661  0.53511863  0.75135832     0.04000
C1842       C  0.65379182  0.56004437  0.77493819    -0.24900
H1843       H  0.69458828  0.65478989  0.81536251     0.09000
H1844       H  0.65947479  0.60712765  0.81944575     0.12600
H1845       H  0.73259258  0.61976781  0.72480368     0.12600
H1846       H  0.71310623  0.56875510  0.70253380     0.12300
H1847       H  0.67773201  0.52187258  0.70576536     0.12900
H1848       H  0.63600425  0.55983792  0.79408810     0.14800
C1849       C  0.77628284  0.70985776  0.62078321    -0.05200
C1850       C  0.79602416  0.72107875  0.59539665    -0.05100
C1851       C  0.79431301  0.70656008  0.56460137    -0.23300
C1852       C  0.77272006  0.68084088  0.55885373     0.18900
C1853       C  0.75329705  0.66964466  0.58453664     0.16100
C1854       C  0.75546107  0.68373220  0.61488040    -0.18300
C1855       C  0.73190699  0.64415785  0.57995890    -0.20200
C1856       C  0.72928977  0.62968776  0.55002174    -0.12700
C1857       C  0.74744933  0.64063330  0.52309528     0.04000
C1858       C  0.77014889  0.66582981  0.52831335    -0.24900
H1859       H  0.81224474  0.74119812  0.59918015     0.09000
H1860       H  0.80956185  0.71562427  0.54527571     0.12600
H1861       H  0.74031388  0.67416521  0.63409388     0.12600
H1862       H  0.71737890  0.63496071  0.59980845     0.12300
H1863       H  0.71356008  0.60892783  0.54878431     0.12900
H1864       H  0.78581021  0.67352235  0.50871185     0.14800
C1865       C  0.63710696  0.76376476  0.69576545    -0.05200
C1866       C  0.61715465  0.79140450  0.69611318    -0.05100
C1867       C  0.58620235  0.79041514  0.68241317    -0.23300
C1868       C  0.57496972  0.76186502  0.66796363     0.18900
C1869       C  0.59451987  0.73383770  0.66826644     0.16100
C1870       C  0.62516461  0.73486900  0.68234933    -0.18300
C1871       C  0.58340351  0.70528571  0.65400953    -0.20200
C1872       C  0.55369337  0.70481391  0.63811248    -0.12700
C1873       C  0.53462478  0.73314632  0.63561195     0.04000
C1874       C  0.54496442  0.76109906  0.65239889    -0.24900
H1875       H  0.62566198  0.81384907  0.70642018     0.09000
H1876       H  0.57136288  0.81214359  0.68245783     0.12600
H1877       H  0.64003532  0.71314336  0.68206363     0.12600
H1878       H  0.59791138  0.68334307  0.65479526     0.12300
H1879       H  0.54600937  0.68207663  0.62800466     0.12900
H1880       H  0.53016061  0.78286264  0.65187289     0.14800
C1881       C  0.79626816  0.86935958  0.71592177    -0.05200
C1882       C  0.77878845  0.89653372  0.70512426    -0.05100
C1883       C  0.79106787  0.92778079  0.70956368    -0.23300
C1884       C  0.82051671  0.93234174  0.72579061     0.18900
C1885       C  0.83779425  0.90506708  0.73721630     0.16100
C1886       C  0.82586024  0.87386726  0.73180079    -0.18300
C1887       C  0.86692149  0.90930856  0.75367316    -0.20200
C1888       C  0.87969793  0.94017115  0.75753908    -0.12700
C1889       C  0.86346366  0.96793847  0.74570911     0.04000
C1890       C  0.83337370  0.96353296  0.73007566    -0.24900
H1891       H  0.75562320  0.89356106  0.69335858     0.09000
H1892       H  0.77737736  0.94836183  0.70064882     0.12600
H1893       H  0.83905884  0.85305681  0.74100830     0.12600
H1894       H  0.88045489  0.88862467  0.76260798     0.12300
H1895       H  0.90337414  0.94222304  0.76846342     0.12900
H1896       H  0.82085575  0.98400901  0.71946505     0.14800
C1897       C  0.73147108  0.81146199  0.84376418    -0.05200
C1898       C  0.73281085  0.84544660  0.84296866    -0.05100
C1899       C  0.73655486  0.86307806  0.87140758    -0.23300
C1900       C  0.73838253  0.84706150  0.90119637     0.18900
C1901       C  0.73486721  0.81313673  0.90249807     0.16100
C1902       C  0.73181500  0.79545281  0.87374749    -0.18300
C1903       C  0.73487265  0.79749452  0.93250134    -0.20200
C1904       C  0.73921438  0.81513872  0.96090802    -0.12700
C1905       C  0.74547294  0.84876185  0.95995633     0.04000
C1906       C  0.74410455  0.86441743  0.92960633    -0.24900
H1907       H  0.73277025  0.85832925  0.82017036     0.09000
H1908       H  0.73875744  0.88917464  0.87002242     0.12600
H1909       H  0.73050683  0.76926021  0.87462607     0.12600
H1910       H  0.73119869  0.77158501  0.93405303     0.12300
H1911       H  0.73731235  0.80205725  0.98339574     0.12900
H1912       H  0.74770742  0.89035705  0.92820094     0.14800
C1913       C  0.86970433  0.73562890  0.78070609    -0.05200
C1914       C  0.89384830  0.71457816  0.76902138    -0.05100
C1915       C  0.92463476  0.71394943  0.78334813    -0.23300
C1916       C  0.93195434  0.73519312  0.80876748     0.18900
C1917       C  0.90789775  0.75701759  0.81976039     0.16100
C1918       C  0.87686874  0.75665556  0.80615750    -0.18300
C1919       C  0.91510720  0.77889073  0.84427154    -0.20200
C1920       C  0.94584535  0.77933699  0.85797339    -0.12700
C1921       C  0.97070562  0.75780219  0.84766574     0.04000
C1922       C  0.96275625  0.73507658  0.82337813    -0.24900
H1923       H  0.88874241  0.69841347  0.74916729     0.09000
H1924       H  0.94279406  0.69715809  0.77432679     0.12600
H1925       H  0.85838364  0.77333300  0.81484309     0.12600
H1926       H  0.89678639  0.79561314  0.85314028     0.12300
H1927       H  0.94918180  0.79605273  0.87764631     0.12900
H1928       H  0.98069913  0.71732765  0.81584684     0.14800
loop_ 
_geom_bond_atom_site_label_1 
_geom_bond_atom_site_label_2 
_geom_bond_distance 
_geom_bond_site_symmetry_2 
_ccdc_geom_bond_type 
Zn1           O5   1.889       .  S
Zn1           O6   1.927       .  S
Zn1          O10   1.951       .  S
Zn1          O17   1.954       .  S
Zn2           O5   1.978       .  S
Zn2           O7   2.028       .  S
Zn2           O9   2.099       .  S
Zn2          O13   2.039       .  S
Zn3           O5   1.973       .  S
Zn3           O8   2.060       .  S
Zn3          O11   2.021       .  S
Zn3          O14   2.018       .  S
Zn4           O5   1.963       .  S
Zn4          O12   2.016       .  S
Zn4          O15   2.027       .  S
Zn4          O16   2.071       .  S
O6           C18   1.264       .  A
O7           C19   1.277       .  A
O8           C20   1.277       .  A
O9           C18   1.279       .  A
O10          C20   1.265       .  A
O11          C19   1.275       .  A
O12          C21   1.274       .  A
O13          C22   1.277       .  A
O14          C21   1.274       .  A
O15          C22   1.277       .  A
O16          C23   1.277       .  A
O17          C23   1.265       .  A
C18        C1849   1.489       .  S
C19        C1881   1.476       .  S
C20        C1865   1.481       .  S
C21        C1897   1.478       .  S
C22        C1913   1.474       .  S
C23        C1833   1.476       .  S
C24        C1785   1.552       .  S
C24        C1801   1.545   1_565  S
C24        C1825   1.549   1_565  S
C24        C1889   1.547       .  S
Zn25         O29   1.963       .  S
Zn25         O30   2.036       .  S
Zn25         O34   2.025       .  S
Zn25         O41   2.094       .  S
Zn26         O29   1.950       .  S
Zn26         O31   2.028       .  S
Zn26         O33   2.009       .  S
Zn26         O37   2.078       .  S
Zn27         O29   1.948       .  S
Zn27         O32   2.050       .  S
Zn27         O35   2.016       .  S
Zn27         O38   2.067       .  S
Zn28         O29   1.882       .  S
Zn28         O36   1.974       .  S
Zn28         O39   1.956       .  S
Zn28         O40   1.949       .  S
O30          C42   1.278       .  A
O31          C43   1.276       .  A
O32          C44   1.278       .  A
O33          C42   1.277       .  A
O34          C44   1.276       .  A
O35          C43   1.276       .  A
O36          C45   1.270       .  A
O37          C46   1.278       .  A
O38          C45   1.279       .  A
O39          C46   1.263       .  A
O40          C47   1.265       .  A
O41          C47   1.278       .  A
C42        C1753   1.482       .  S
C43        C1777   1.485       .  S
C44        C1817   1.481       .  S
C45        C1737   1.475       .  S
C46        C1713   1.469       .  S
C47        C1721   1.484       .  S
C48        C1673   1.558       .  S
C48        C1689   1.566       .  S
C48        C1705   1.558       .  S
C48        C1841   1.561       .  S
C49        C1625   1.553       .  S
C49        C1641   1.549       .  S
C49        C1657   1.551       .  S
C49        C1857   1.551       .  S
Zn50         O54   1.969       .  S
Zn50         O55   2.032       .  S
Zn50         O59   2.081       .  S
Zn50         O66   2.015       .  S
Zn51         O54   1.955       .  S
Zn51         O56   2.076       .  S
Zn51         O58   1.996       .  S
Zn51         O62   2.020       .  S
Zn52         O54   1.874       .  S
Zn52         O57   1.942       .  S
Zn52         O60   1.939       .  S
Zn52         O63   1.929       .  S
Zn53         O54   1.988       .  S
Zn53         O61   2.114       .  S
Zn53         O64   2.059       .  S
Zn53         O65   2.030       .  S
O55          C67   1.276       .  A
O56          C68   1.277       .  A
O57          C69   1.265       .  A
O58          C67   1.275       .  A
O59          C69   1.277       .  A
O60          C68   1.266       .  A
O61          C70   1.282       .  A
O62          C71   1.274       .  A
O63          C70   1.263       .  A
O64          C71   1.279       .  A
O65          C72   1.277       .  A
O66          C72   1.277       .  A
C67        C1665   1.476       .  S
C68        C1609   1.481       .  S
C69        C1561   1.481       .  S
C70        C1553   1.492       .  S
C71        C1593   1.479       .  S
C72        C1577   1.484       .  S
C73        C1521   1.562       .  S
C73        C1529   1.548       .  S
C73        C1545   1.555   1_556  S
C73        C1905   1.553       .  S
C74        C1465   1.560       .  S
C74        C1489   1.556       .  S
C74        C1505   1.552       .  S
C74        C1617   1.554       .  S
C75        C1401   1.555   1_545  S
C75        C1425   1.553       .  S
C75        C1433   1.546       .  S
C75        C1449   1.556       .  S
C76        C1353   1.551       .  S
C76        C1369   1.556       .  S
C76        C1393   1.562       .  S
C76        C1729   1.554   1_554  S
C77        C1297   1.563       .  S
C77        C1313   1.560       .  S
C77        C1329   1.559       .  S
C77        C1337   1.556   1_556  S
C78        C1225   1.565       .  S
C78        C1241   1.569       .  S
C78        C1257   1.558       .  S
C78        C1281   1.563       .  S
C79        C1177   1.563       .  S
C79        C1201   1.564       .  S
C79        C1217   1.567       .  S
C79        C1769   1.566       .  S
C80        C1129   1.562   1_655  S
C80        C1153   1.558   1_655  S
C80        C1161   1.563       .  S
C80        C1585   1.560       .  S
Zn81         O85   1.986       .  S
Zn81         O86   2.036       .  S
Zn81         O90   2.019       .  S
Zn81         O97   2.070       .  S
Zn82         O85   1.974       .  S
Zn82         O87   2.061       .  S
Zn82         O89   1.996       .  S
Zn82         O93   2.087       .  S
Zn83         O85   1.979       .  S
Zn83         O88   2.047       .  S
Zn83         O91   2.026       .  S
Zn83         O94   2.114       .  S
Zn84         O85   1.897       .  S
Zn84         O92   1.936       .  S
Zn84         O95   1.967       .  S
Zn84         O96   1.946       .  S
O86          C98   1.277       .  A
O87          C99   1.278       .  A
O88         C100   1.279       .  A
O89          C98   1.274       .  A
O90         C100   1.275       .  A
O91          C99   1.276       .  A
O92         C101   1.266       .  A
O93         C102   1.280       .  A
O94         C101   1.283       .  A
O95         C102   1.265       .  A
O96         C103   1.265       .  A
O97         C103   1.276       .  A
C98        C1473   1.481       .  S
C99        C1345   1.486       .  S
C100       C1097   1.479       .  S
C101       C1137   1.494       .  S
C102       C1121   1.492       .  S
C103       C1081   1.475       .  S
C104       C1033   1.576       .  S
C104       C1057   1.565       .  S
C104       C1073   1.568       .  S
C104       C1089   1.563       .  S
C105        C985   1.562       .  S
C105       C1009   1.561       .  S
C105       C1017   1.552       .  S
C105       C1601   1.563       .  S
Zn106       O110   1.866       .  S
Zn106       O111   1.945       .  S
Zn106       O115   1.907       .  S
Zn106       O122   1.937       .  S
Zn107       O110   1.967       .  S
Zn107       O112   2.010       .  S
Zn107       O114   2.068       .  S
Zn107       O118   1.974       .  S
Zn108       O110   1.986       .  S
Zn108       O113   2.121       .  S
Zn108       O116   2.025       .  S
Zn108       O119   2.035       .  S
Zn109       O110   1.976       .  S
Zn109       O117   2.010       .  S
Zn109       O120   2.038       .  S
Zn109       O121   2.071       .  S
O111        C123   1.265       .  A
O112        C124   1.273       .  A
O113        C125   1.281       .  A
O114        C123   1.274       .  A
O115        C125   1.262       .  A
O116        C124   1.276       .  A
O117        C126   1.275       .  A
O118        C127   1.271       .  A
O119        C126   1.277       .  A
O120        C127   1.276       .  A
O121        C128   1.278       .  A
O122        C128   1.263       .  A
C123        C953   1.486       .  S
C124       C1025   1.466       .  S
C125       C1185   1.492       .  S
C126        C977   1.471       .  S
C127       C1361   1.476       .  S
C128        C937   1.482       .  S
C129        C913   1.559       .  S
C129        C929   1.562       .  S
C129        C945   1.550       .  S
C129       C1569   1.551   1_545  S
C130        C857   1.559       .  S
C130        C873   1.568       .  S
C130        C897   1.571       .  S
C130       C1745   1.561       .  S
Zn131       O135   1.985       .  S
Zn131       O136   2.002       .  S
Zn131       O140   2.049       .  S
Zn131       O147   2.098       .  S
Zn132       O135   1.974       .  S
Zn132       O137   1.994       .  S
Zn132       O139   2.022       .  S
Zn132       O143   2.081       .  S
Zn133       O135   1.995       .  S
Zn133       O138   2.030       .  S
Zn133       O141   2.053       .  S
Zn133       O144   2.117       .  S
Zn134       O135   1.882       .  S
Zn134       O142   1.946       .  S
Zn134       O145   1.958       .  S
Zn134       O146   1.941       .  S
O136        C148   1.274       .  A
O137        C149   1.275       .  A
O138        C150   1.277       .  A
O139        C148   1.275       .  A
O140        C150   1.277       .  A
O141        C149   1.279       .  A
O142        C151   1.266       .  A
O143        C152   1.276       .  A
O144        C151   1.281       .  A
O145        C152   1.267       .  A
O146        C153   1.265       .  A
O147        C153   1.279       .  A
C148       C1417   1.478       .  S
C149        C841   1.482       .  S
C150        C889   1.487       .  S
C151       C1249   1.498       .  S
C152        C809   1.486       .  S
C153        C825   1.482       .  S
C154        C777   1.556   1_455  S
C154        C793   1.555   1_455  S
C154        C817   1.559       .  S
C154       C1761   1.561   1_455  S
C155        C729   1.573       .  S
C155        C753   1.564       .  S
C155        C761   1.569       .  S
C155        C969   1.562   1_455  S
Zn156       O160   1.969       .  S
Zn156       O161   2.033   1_556  S
Zn156       O165   1.996       .  S
Zn156       O172   2.064   1_556  S
Zn157       O160   1.970   1_564  S
Zn157       O162   2.034   1_654  S
Zn157       O164   1.997       .  S
Zn157       O168   2.059   1_655  S
Zn158       O160   1.967   1_455  S
Zn158       O163   2.025   1_455  S
Zn158       O166   2.007   1_545  S
Zn158       O169   2.063       .  S
Zn159       O160   1.895   1_454  S
Zn159       O167   1.970       .  S
Zn159       O170   1.957       .  S
Zn159       O171   1.963       .  S
O161        C173   1.276   1_545  A
O162        C174   1.276       .  A
O163        C175   1.276       .  A
O164        C173   1.272       .  A
O165        C175   1.273       .  A
O166        C174   1.274       .  A
O167        C176   1.268   1_554  A
O168        C177   1.276       .  A
O169        C176   1.276       .  A
O170        C177   1.269   1_545  A
O171        C178   1.268   1_455  A
O172        C178   1.276       .  A
C173       C1537   1.468       .  S
C174        C681   1.484       .  S
C175       C1809   1.471       .  S
C176        C697   1.476       .  S
C177        C721   1.472       .  S
C178        C769   1.480       .  S
Zn179       O183   1.896       .  S
Zn179       O184   1.945       .  S
Zn179       O188   1.955       .  S
Zn179       O195   1.958       .  S
Zn180       O183   1.976       .  S
Zn180       O185   2.028       .  S
Zn180       O187   2.082       .  S
Zn180       O191   2.045       .  S
Zn181       O183   1.972       .  S
Zn181       O186   2.072       .  S
Zn181       O189   2.038       .  S
Zn181       O192   1.993       .  S
Zn182       O183   1.979       .  S
Zn182       O190   2.019       .  S
Zn182       O193   2.005       .  S
Zn182       O194   2.048       .  S
O184        C196   1.266       .  A
O185        C197   1.278       .  A
O186        C198   1.276       .  A
O187        C196   1.278       .  A
O188        C198   1.267       .  A
O189        C197   1.277       .  A
O190        C199   1.274       .  A
O191        C200   1.278       .  A
O192        C199   1.274       .  A
O193        C200   1.274       .  A
O194        C201   1.273       .  A
O195        C201   1.266       .  A
C196        C745   1.476       .  S
C197        C625   1.490       .  S
C198        C657   1.484       .  S
C199        C633   1.476       .  S
C200        C609   1.480       .  S
C201        C665   1.474       .  S
C202        C593   1.581       .  S
C202        C649   1.557   1_565  S
C202        C713   1.574       .  S
C202       C1113   1.574       .  S
Zn203       O207   1.900       .  S
Zn203       O208   1.948       .  S
Zn203       O212   1.962       .  S
Zn203       O219   1.958       .  S
Zn204       O207   1.976   1_465  S
Zn204       O209   2.014   1_455  S
Zn204       O211   2.064   1_455  S
Zn204       O215   2.020       .  S
Zn205       O207   1.985   1_565  S
Zn205       O210   2.095   1_565  S
Zn205       O213   2.006       .  S
Zn205       O216   2.025   1_565  S
Zn206       O207   1.982   1_455  S
Zn206       O214   2.028       .  S
Zn206       O217   2.050       .  S
Zn206       O218   2.083       .  S
O208        C220   1.265   1_545  A
O209        C221   1.274       .  A
O210        C222   1.279       .  A
O211        C220   1.276       .  A
O212        C222   1.267       .  A
O213        C221   1.273       .  A
O214        C223   1.278       .  A
O215        C224   1.276       .  A
O216        C223   1.276   1_655  A
O217        C224   1.278   1_545  A
O218        C225   1.279       .  A
O219        C225   1.268   1_655  A
C220       C1793   1.465       .  S
C221       C1169   1.479       .  S
C222       C1193   1.495       .  S
C223        C585   1.476       .  S
C224       C1049   1.485       .  S
C225        C801   1.489       .  S
C226        C577   1.548       .  S
C226        C673   1.549       .  S
C226        C705   1.552       .  S
C226        C849   1.545   1_554  S
Zn227       O231   1.906   1_556  S
Zn227       O232   1.962       .  S
Zn227       O236   1.948       .  S
Zn227       O243   1.943       .  S
Zn228       O231   1.972   1_566  S
Zn228       O233   2.003       .  S
Zn228       O235   2.043       .  S
Zn228       O239   2.013       .  S
Zn229       O231   1.989       .  S
Zn229       O234   2.095   1_554  S
Zn229       O237   2.067   1_545  S
Zn229       O240   2.045       .  S
Zn230       O231   1.974   1_565  S
Zn230       O238   2.022       .  S
Zn230       O241   2.009       .  S
Zn230       O242   2.090   1_565  S
O232        C244   1.267   1_545  A
O233        C245   1.273       .  A
O234        C246   1.281       .  A
O235        C244   1.275       .  A
O236        C246   1.264       .  A
O237        C245   1.280   1_554  A
O238        C247   1.276   1_565  A
O239        C248   1.271   1_556  A
O240        C247   1.279       .  A
O241        C248   1.275       .  A
O242        C249   1.278       .  A
O243        C249   1.264   1_556  A
C244       C1441   1.479       .  S
C245       C1513   1.484       .  S
C246        C881   1.477       .  S
C247        C921   1.480       .  S
C248       C1497   1.478       .  S
C249        C569   1.476       .  S
Zn250       O254   1.980   1_545  S
Zn250       O255   2.044       .  S
Zn250       O259   2.064       .  S
Zn250       O266   2.015       .  S
Zn251       O254   1.973       .  S
Zn251       O256   2.047       .  S
Zn251       O258   2.035       .  S
Zn251       O262   2.023       .  S
Zn252       O254   1.921       .  S
Zn252       O257   1.957       .  S
Zn252       O260   1.972       .  S
Zn252       O263   1.975       .  S
Zn253       O254   1.971       .  S
Zn253       O261   2.069       .  S
Zn253       O264   2.023       .  S
Zn253       O265   2.010   1_565  S
O255        C267   1.278       .  A
O256        C268   1.276       .  A
O257        C269   1.266       .  A
O258        C267   1.276   1_565  A
O259        C269   1.277   1_545  A
O260        C268   1.270       .  A
O261        C270   1.278       .  A
O262        C271   1.275       .  A
O263        C270   1.266       .  A
O264        C271   1.275       .  A
O265        C272   1.275       .  A
O266        C272   1.273       .  A
C267       C1209   1.490       .  S
C268        C545   1.472       .  S
C269       C1457   1.470   1_565  S
C270       C1065   1.480       .  S
C271        C905   1.476       .  S
C272        C553   1.476       .  S
C273        C521   1.564       .  S
C273        C561   1.555       .  S
C273        C641   1.559       .  S
C273        C961   1.558       .  S
Zn274       O278   1.987       .  S
Zn274       O279   2.003       .  S
Zn274       O283   2.036       .  S
Zn274       O290   2.089   1_655  S
Zn275       O278   1.985   1_554  S
Zn275       O280   2.028       .  S
Zn275       O282   2.040   1_554  S
Zn275       O286   2.079   1_554  S
Zn276       O278   1.979   1_454  S
Zn276       O281   2.005       .  S
Zn276       O284   2.029   1_455  S
Zn276       O287   2.084       .  S
Zn277       O278   1.893   1_455  S
Zn277       O285   1.958       .  S
Zn277       O288   1.960       .  S
Zn277       O289   1.950       .  S
O279        C291   1.273       .  A
O280        C292   1.277       .  A
O281        C293   1.274       .  A
O282        C291   1.276       .  A
O283        C293   1.275   1_656  A
O284        C292   1.276       .  A
O285        C294   1.267   1_556  A
O286        C295   1.278       .  A
O287        C294   1.278       .  A
O288        C295   1.267   1_455  A
O289        C296   1.267       .  A
O290        C296   1.278       .  A
C291       C1377   1.468       .  S
C292       C1001   1.479       .  S
C293        C737   1.473       .  S
C294       C1305   1.491       .  S
C295        C513   1.488       .  S
C296       C1273   1.491       .  S
Zn297       O301   1.984       .  S
Zn297       O302   2.044       .  S
Zn297       O306   2.104       .  S
Zn297       O313   2.029       .  S
Zn298       O301   1.976   1_556  S
Zn298       O303   2.102       .  S
Zn298       O305   2.027       .  S
Zn298       O309   2.049       .  S
Zn299       O301   1.883       .  S
Zn299       O304   1.924       .  S
Zn299       O307   1.943       .  S
Zn299       O310   1.928       .  S
Zn300       O301   1.989       .  S
Zn300       O308   2.093       .  S
Zn300       O311   2.008   1_554  S
Zn300       O312   2.028       .  S
O302        C314   1.278   1_554  A
O303        C315   1.280       .  A
O304        C316   1.262       .  A
O305        C314   1.278       .  A
O306        C316   1.280       .  A
O307        C315   1.262   1_554  A
O308        C317   1.277       .  A
O309        C318   1.279       .  A
O310        C317   1.263       .  A
O311        C318   1.275       .  A
O312        C319   1.276       .  A
O313        C319   1.278       .  A
C314        C865   1.489       .  S
C315       C1321   1.475       .  S
C316        C497   1.486       .  S
C317       C1481   1.489       .  S
C318       C1681   1.486       .  S
C319       C1385   1.485       .  S
Zn320       O324   1.886       .  S
Zn320       O325   1.939       .  S
Zn320       O329   1.909       .  S
Zn320       O336   1.944       .  S
Zn321       O324   1.974   1_455  S
Zn321       O326   2.042       .  S
Zn321       O328   2.102   1_455  S
Zn321       O332   2.039   1_455  S
Zn322       O324   1.991   1_455  S
Zn322       O327   2.090       .  S
Zn322       O330   2.037       .  S
Zn322       O333   2.030       .  S
Zn323       O324   1.977       .  S
Zn323       O331   2.021       .  S
Zn323       O334   2.011       .  S
Zn323       O335   2.070       .  S
O325        C337   1.262       .  A
O326        C338   1.280       .  A
O327        C339   1.277       .  A
O328        C337   1.281       .  A
O329        C339   1.261   1_655  A
O330        C338   1.277       .  A
O331        C340   1.273   1_655  A
O332        C341   1.277       .  A
O333        C340   1.277       .  A
O334        C341   1.277       .  A
O335        C342   1.275       .  A
O336        C342   1.265       .  A
C337        C993   1.478       .  S
C338        C481   1.485       .  S
C339       C1145   1.480   1_455  S
C340       C1265   1.480       .  S
C341        C785   1.476       .  S
C342       C1649   1.482       .  S
C343        C465   1.562       .  S
C343        C473   1.554       .  S
C343        C617   1.565       .  S
C343        C833   1.560       .  S
Zn344       O348   1.960       .  S
Zn344       O349   2.032       .  S
Zn344       O353   1.972       .  S
Zn344       O360   1.994       .  S
Zn345       O348   1.891       .  S
Zn345       O350   1.960       .  S
Zn345       O352   1.968       .  S
Zn345       O356   1.949       .  S
Zn346       O348   1.988       .  S
Zn346       O351   2.045       .  S
Zn346       O354   2.098       .  S
Zn346       O357   2.027       .  S
Zn347       O348   1.994       .  S
Zn347       O355   2.044       .  S
Zn347       O358   2.100       .  S
Zn347       O359   2.029       .  S
O349        C361   1.272       .  A
O350        C362   1.268       .  A
O351        C363   1.276       .  A
O352        C361   1.267       .  A
O353        C363   1.270       .  A
O354        C362   1.280       .  A
O355        C364   1.279       .  A
O356        C365   1.267       .  A
O357        C364   1.279       .  A
O358        C365   1.280       .  A
O359        C366   1.275       .  A
O360        C366   1.270       .  A
C361        C449   1.479       .  S
C362        C529   1.496       .  S
C363       C1633   1.474       .  S
C364       C1697   1.487       .  S
C365        C457   1.493       .  S
C366        C433   1.475       .  S
C367        C441   1.550       .  S
C367        C489   1.554       .  S
C367        C601   1.558       .  S
C367       C1105   1.560       .  S
C368        C409   1.563       .  S
C368        C505   1.558       .  S
C368        C689   1.558       .  S
C368       C1921   1.559   1_455  S
Zn369       O373   1.984       .  S
Zn369       O374   2.091       .  S
Zn369       O378   2.047       .  S
Zn369       O385   2.027       .  S
Zn370       O373   1.896       .  S
Zn370       O375   1.930       .  S
Zn370       O377   1.939       .  S
Zn370       O381   1.965       .  S
Zn371       O373   1.976       .  S
Zn371       O376   2.000       .  S
Zn371       O379   2.064       .  S
Zn371       O382   2.033       .  S
Zn372       O373   1.962       .  S
Zn372       O380   2.033       .  S
Zn372       O383   2.083       .  S
Zn372       O384   2.041       .  S
O374        C386   1.280       .  A
O375        C387   1.263       .  A
O376        C388   1.274       .  A
O377        C386   1.265       .  A
O378        C388   1.277       .  A
O379        C387   1.275       .  A
O380        C389   1.279       .  A
O381        C390   1.265       .  A
O382        C389   1.276       .  A
O383        C390   1.280       .  A
O384        C391   1.277       .  A
O385        C391   1.278       .  A
C386       C1409   1.485       .  S
C387        C401   1.478       .  S
C388       C1289   1.485       .  S
C389       C1233   1.489       .  S
C390       C1041   1.486       .  S
C391        C417   1.484       .  S
C392        C393   1.549       .  S
C392        C425   1.556       .  S
C392        C537   1.552       .  S
C392       C1873   1.545       .  S
C393        C394   1.412       .  A
C393        C398   1.418       .  A
C394        C395   1.390       .  A
C394        H403   1.080       .  S
C395        C396   1.398       .  A
C395        H404   1.084       .  S
C396        C402   1.391       .  A
C396        C397   1.408       .  A
C397        C399   1.408       .  A
C397        C398   1.403       .  A
C398        H405   1.084       .  S
C399        C400   1.404       .  A
C399        H406   1.083       .  S
C400        C401   1.403       .  A
C400        H407   1.083       .  S
C401        C402   1.408       .  A
C402        H408   1.085       .  S
C409        C410   1.415       .  A
C409        C414   1.416       .  A
C410        C411   1.405       .  A
C410        H419   1.078       .  S
C411        C412   1.404       .  A
C411        H420   1.083       .  S
C412        C418   1.413       .  A
C412        C413   1.410       .  A
C413        C415   1.400       .  A
C413        C414   1.400       .  A
C414        H421   1.084       .  S
C415        C416   1.394       .  A
C415        H422   1.084       .  S
C416        C417   1.406       .  A
C416        H423   1.083       .  S
C417        C418   1.411       .  A
C418        H424   1.084       .  S
C425        C426   1.419       .  A
C425        C430   1.413       .  A
C426        C427   1.393       .  A
C426        H435   1.078       .  S
C427        C428   1.394       .  A
C427        H436   1.084       .  S
C428        C434   1.403       .  A
C428        C429   1.413       .  A
C429        C431   1.401       .  A
C429        C430   1.405       .  A
C430        H437   1.084       .  S
C431        C432   1.397       .  A
C431        H438   1.084       .  S
C432        C433   1.407       .  A
C432        H439   1.083       .  S
C433        C434   1.402       .  A
C434        H440   1.084       .  S
C441        C442   1.415       .  A
C441        C446   1.417       .  A
C442        C443   1.389       .  A
C442        H451   1.079       .  S
C443        C444   1.395       .  A
C443        H452   1.084       .  S
C444        C450   1.394       .  A
C444        C445   1.409       .  A
C445        C447   1.406       .  A
C445        C446   1.405       .  A
C446        H453   1.084       .  S
C447        C448   1.403       .  A
C447        H454   1.083       .  S
C448        C449   1.406       .  A
C448        H455   1.083       .  S
C449        C450   1.405       .  A
C450        H456   1.084       .  S
C457        C458   1.407       .  A
C457        C462   1.407       .  A
C458        C459   1.415       .  A
C458        H467   1.082       .  S
C459        C460   1.413       .  A
C459        H468   1.083       .  S
C460        C466   1.418       .  A
C460        C461   1.407       .  A
C461        C463   1.392       .  A
C461        C462   1.393       .  A
C462        H469   1.085       .  S
C463        C464   1.385       .  A
C463        H470   1.085       .  S
C464        C465   1.417       .  A
C464        H471   1.077       .  S
C465        C466   1.426       .  A
C466        H472   1.082       .  S
C473        C474   1.415       .  A
C473        C478   1.417       .  A
C474        C475   1.388       .  A
C474        H483   1.083       .  S
C475        C476   1.394       .  A
C475        H484   1.084       .  S
C476        C482   1.402       .  A
C476        C477   1.414       .  A
C477        C479   1.408       .  A
C477        C478   1.418       .  A
C478        H485   1.082       .  S
C479        C480   1.408       .  A
C479        H486   1.083       .  S
C480        C481   1.407       .  A
C480        H487   1.083       .  S
C481        C482   1.402       .  A
C482        H488   1.085       .  S
C489        C490   1.417       .  A
C489        C494   1.409       .  A
C490        C491   1.401       .  A
C490        H499   1.083       .  S
C491        C492   1.400       .  A
C491        H500   1.083       .  S
C492        C498   1.415       .  A
C492        C493   1.415       .  A
C493        C495   1.394       .  A
C493        C494   1.402       .  A
C494        H501   1.082       .  S
C495        C496   1.388       .  A
C495        H502   1.084       .  S
C496        C497   1.412       .  A
C496        H503   1.083       .  S
C497        C498   1.407       .  A
C498        H504   1.084       .  S
C505        C506   1.416       .  A
C505        C510   1.422   1_455  A
C506        C507   1.389       .  A
C506        H515   1.079       .  S
C507        C508   1.395       .  A
C507        H516   1.084       .  S
C508        C514   1.396       .  A
C508        C509   1.408   1_455  A
C509        C511   1.409       .  A
C509        C510   1.412       .  A
C510        H517   1.084       .  S
C511        C512   1.409       .  A
C511        H518   1.083       .  S
C512        C513   1.406       .  A
C512        H519   1.083       .  S
C513        C514   1.408   1_655  A
C514        H520   1.085       .  S
C521        C522   1.418       .  A
C521        C526   1.425       .  A
C522        C523   1.385       .  A
C522        H531   1.076       .  S
C523        C524   1.391       .  A
C523        H532   1.085       .  S
C524        C530   1.395       .  A
C524        C525   1.408       .  A
C525        C527   1.412       .  A
C525        C526   1.419       .  A
C526        H533   1.083       .  S
C527        C528   1.414       .  A
C527        H534   1.083       .  S
C528        C529   1.408       .  A
C528        H535   1.083       .  S
C529        C530   1.407       .  A
C530        H536   1.084       .  S
C537        C538   1.412       .  A
C537        C542   1.418       .  A
C538        C539   1.393       .  A
C538        H547   1.083       .  S
C539        C540   1.399       .  A
C539        H548   1.084       .  S
C540        C546   1.397       .  A
C540        C541   1.410       .  A
C541        C543   1.406       .  A
C541        C542   1.402       .  A
C542        H549   1.081       .  S
C543        C544   1.401       .  A
C543        H550   1.083       .  S
C544        C545   1.403       .  A
C544        H551   1.083       .  S
C545        C546   1.405       .  A
C546        H552   1.085       .  S
C553        C554   1.406       .  A
C553        C558   1.400       .  A
C554        C555   1.403       .  A
C554        H563   1.083       .  S
C555        C556   1.405       .  A
C555        H564   1.083       .  S
C556        C562   1.412       .  A
C556        C557   1.414       .  A
C557        C559   1.392       .  A
C557        C558   1.397       .  A
C558        H565   1.085       .  S
C559        C560   1.385       .  A
C559        H566   1.084       .  S
C560        C561   1.419       .  A
C560        H567   1.084       .  S
C561        C562   1.414       .  A
C562        H568   1.081       .  S
C569        C570   1.405       .  A
C569        C574   1.409       .  A
C570        C571   1.389       .  A
C570        H579   1.084       .  S
C571        C572   1.397       .  A
C571        H580   1.084       .  S
C572        C578   1.398       .  A
C572        C573   1.412       .  A
C573        C575   1.404       .  A
C573        C574   1.416       .  A
C574        H581   1.084       .  S
C575        C576   1.407       .  A
C575        H582   1.083       .  S
C576        C577   1.415       .  A
C576        H583   1.080       .  S
C577        C578   1.410       .  A
C578        H584   1.083       .  S
C585        C586   1.400       .  A
C585        C590   1.412   1_545  A
C586        C587   1.395       .  A
C586        H595   1.083       .  S
C587        C588   1.405       .  A
C587        H596   1.084       .  S
C588        C594   1.399       .  A
C588        C589   1.406   1_545  A
C589        C591   1.404       .  A
C589        C590   1.410       .  A
C590        H597   1.084       .  S
C591        C592   1.406       .  A
C591        H598   1.083       .  S
C592        C593   1.416       .  A
C592        H599   1.083       .  S
C593        C594   1.427   1_565  A
C594        H600   1.076       .  S
C601        C602   1.415       .  A
C601        C606   1.415       .  A
C602        C603   1.397       .  A
C602        H611   1.083       .  S
C603        C604   1.399       .  A
C603        H612   1.084       .  S
C604        C610   1.406       .  A
C604        C605   1.412       .  A
C605        C607   1.402       .  A
C605        C606   1.404       .  A
C606        H613   1.079       .  S
C607        C608   1.397       .  A
C607        H614   1.084       .  S
C608        C609   1.406       .  A
C608        H615   1.083       .  S
C609        C610   1.406       .  A
C610        H616   1.084       .  S
C617        C618   1.419       .  A
C617        C622   1.418       .  A
C618        C619   1.388       .  A
C618        H627   1.082       .  S
C619        C620   1.392       .  A
C619        H628   1.084       .  S
C620        C626   1.402       .  A
C620        C621   1.412       .  A
C621        C623   1.406       .  A
C621        C622   1.416       .  A
C622        H629   1.079       .  S
C623        C624   1.406       .  A
C623        H630   1.083       .  S
C624        C625   1.409       .  A
C624        H631   1.083       .  S
C625        C626   1.405       .  A
C626        H632   1.084       .  S
C633        C634   1.405       .  A
C633        C638   1.411       .  A
C634        C635   1.386       .  A
C634        H643   1.083       .  S
C635        C636   1.396       .  A
C635        H644   1.084       .  S
C636        C642   1.388       .  A
C636        C637   1.408       .  A
C637        C639   1.406       .  A
C637        C638   1.409       .  A
C638        H645   1.084       .  S
C639        C640   1.406       .  A
C639        H646   1.083       .  S
C640        C641   1.413       .  A
C640        H647   1.078       .  S
C641        C642   1.415       .  A
C642        H648   1.085       .  S
C649        C650   1.420       .  A
C649        C654   1.420       .  A
C650        C651   1.384       .  A
C650        H659   1.082       .  S
C651        C652   1.391       .  A
C651        H660   1.084       .  S
C652        C658   1.394       .  A
C652        C653   1.411       .  A
C653        C655   1.410       .  A
C653        C654   1.415       .  A
C654        H661   1.083       .  S
C655        C656   1.410       .  A
C655        H662   1.083       .  S
C656        C657   1.406       .  A
C656        H663   1.083       .  S
C657        C658   1.404       .  A
C658        H664   1.085       .  S
C665        C666   1.404       .  A
C665        C670   1.403       .  A
C666        C667   1.404       .  A
C666        H675   1.083       .  S
C667        C668   1.407       .  A
C667        H676   1.083       .  S
C668        C674   1.407       .  A
C668        C669   1.410       .  A
C669        C671   1.395       .  A
C669        C670   1.394       .  A
C670        H677   1.085       .  S
C671        C672   1.388       .  A
C671        H678   1.084       .  S
C672        C673   1.413       .  A
C672        H679   1.082       .  S
C673        C674   1.418       .  A
C674        H680   1.082       .  S
C681        C682   1.407       .  A
C681        C686   1.410       .  A
C682        C683   1.392       .  A
C682        H691   1.083       .  S
C683        C684   1.398       .  A
C683        H692   1.084       .  S
C684        C690   1.398       .  A
C684        C685   1.410       .  A
C685        C687   1.403       .  A
C685        C686   1.410       .  A
C686        H693   1.084       .  S
C687        C688   1.403       .  A
C687        H694   1.083       .  S
C688        C689   1.415       .  A
C688        H695   1.078       .  S
C689        C690   1.414       .  A
C690        H696   1.084       .  S
C697        C698   1.404       .  A
C697        C702   1.402       .  A
C698        C699   1.408       .  A
C698        H707   1.083       .  S
C699        C700   1.409       .  A
C699        H708   1.083       .  S
C700        C706   1.413       .  A
C700        C701   1.411       .  A
C701        C703   1.394   1_556  A
C701        C702   1.396       .  A
C702        H709   1.085       .  S
C703        C704   1.387       .  A
C703        H710   1.084       .  S
C704        C705   1.415       .  A
C704        H711   1.082       .  S
C705        C706   1.419   1_554  A
C706        H712   1.082       .  S
C713        C714   1.421       .  A
C713        C718   1.423       .  A
C714        C715   1.381       .  A
C714        H723   1.082   1_565  S
C715        C716   1.387       .  A
C715        H724   1.085   1_565  S
C716        C722   1.391       .  A
C716        C717   1.410       .  A
C717        C719   1.410       .  A
C717        C718   1.415       .  A
C718        H725   1.075       .  S
C719        C720   1.408       .  A
C719        H726   1.084       .  S
C720        C721   1.404       .  A
C720        H727   1.083   1_455  S
C721        C722   1.398       .  A
C722        H728   1.086       .  S
C729        C730   1.416   1_455  A
C729        C734   1.422       .  A
C730        C731   1.405       .  A
C730        H739   1.082       .  S
C731        C732   1.404       .  A
C731        H740   1.084       .  S
C732        C738   1.411       .  A
C732        C733   1.407   1_655  A
C733        C735   1.403       .  A
C733        C734   1.397       .  A
C734        H741   1.075       .  S
C735        C736   1.391       .  A
C735        H742   1.084       .  S
C736        C737   1.401       .  A
C736        H743   1.083       .  S
C737        C738   1.410   1_455  A
C738        H744   1.084       .  S
C745        C746   1.403       .  A
C745        C750   1.403       .  A
C746        C747   1.408       .  A
C746        H755   1.083       .  S
C747        C748   1.410       .  A
C747        H756   1.083       .  S
C748        C754   1.412       .  A
C748        C749   1.410       .  A
C749        C751   1.394       .  A
C749        C750   1.394       .  A
C750        H757   1.085       .  S
C751        C752   1.387       .  A
C751        H758   1.084       .  S
C752        C753   1.418       .  A
C752        H759   1.083       .  S
C753        C754   1.422       .  A
C754        H760   1.078       .  S
C761        C762   1.421       .  A
C761        C766   1.422   1_455  A
C762        C763   1.388       .  A
C762        H771   1.082       .  S
C763        C764   1.392   1_455  A
C763        H772   1.084       .  S
C764        C770   1.396       .  A
C764        C765   1.408       .  A
C765        C767   1.409       .  A
C765        C766   1.411       .  A
C766        H773   1.075       .  S
C767        C768   1.407       .  A
C767        H774   1.084       .  S
C768        C769   1.405       .  A
C768        H775   1.083       .  S
C769        C770   1.404       .  A
C770        H776   1.085   1_655  S
C777        C778   1.415   1_655  A
C777        C782   1.417       .  A
C778        C779   1.386   1_455  A
C778        H787   1.083       .  S
C779        C780   1.393       .  A
C779        H788   1.084   1_655  S
C780        C786   1.396       .  A
C780        C781   1.413       .  A
C781        C783   1.408       .  A
C781        C782   1.413       .  A
C782        H789   1.080       .  S
C783        C784   1.406       .  A
C783        H790   1.083       .  S
C784        C785   1.405       .  A
C784        H791   1.083       .  S
C785        C786   1.400       .  A
C786        H792   1.085       .  S
C793        C794   1.417       .  A
C793        C798   1.421   1_655  A
C794        C795   1.388       .  A
C794        H803   1.079       .  S
C795        C796   1.394       .  A
C795        H804   1.084       .  S
C796        C802   1.395       .  A
C796        C797   1.408   1_655  A
C797        C799   1.410       .  A
C797        C798   1.413       .  A
C798        H805   1.083       .  S
C799        C800   1.409       .  A
C799        H806   1.083       .  S
C800        C801   1.406       .  A
C800        H807   1.083       .  S
C801        C802   1.407   1_455  A
C802        H808   1.084       .  S
C809        C810   1.407       .  A
C809        C814   1.403       .  A
C810        C811   1.413       .  A
C810        H819   1.083       .  S
C811        C812   1.411       .  A
C811        H820   1.083       .  S
C812        C818   1.416       .  A
C812        C813   1.409       .  A
C813        C815   1.391       .  A
C813        C814   1.393       .  A
C814        H821   1.085       .  S
C815        C816   1.384       .  A
C815        H822   1.084       .  S
C816        C817   1.417       .  A
C816        H823   1.080       .  S
C817        C818   1.422       .  A
C818        H824   1.083       .  S
C825        C826   1.406       .  A
C825        C830   1.412       .  A
C826        C827   1.385       .  A
C826        H835   1.084       .  S
C827        C828   1.395       .  A
C827        H836   1.084       .  S
C828        C834   1.396       .  A
C828        C829   1.411       .  A
C829        C831   1.406       .  A
C829        C830   1.420       .  A
C830        H837   1.083       .  S
C831        C832   1.410       .  A
C831        H838   1.083       .  S
C832        C833   1.415       .  A
C832        H839   1.082       .  S
C833        C834   1.413       .  A
C834        H840   1.083       .  S
C841        C842   1.408       .  A
C841        C846   1.408       .  A
C842        C843   1.391       .  A
C842        H851   1.083       .  S
C843        C844   1.397       .  A
C843        H852   1.084       .  S
C844        C850   1.399       .  A
C844        C845   1.412       .  A
C845        C847   1.402       .  A
C845        C846   1.411       .  A
C846        H853   1.084       .  S
C847        C848   1.402       .  A
C847        H854   1.083       .  S
C848        C849   1.415       .  A
C848        H855   1.080   1_556  S
C849        C850   1.410       .  A
C850        H856   1.084       .  S
C857        C858   1.416       .  A
C857        C862   1.418       .  A
C858        C859   1.390       .  A
C858        H867   1.083       .  S
C859        C860   1.395       .  A
C859        H868   1.084       .  S
C860        C866   1.402       .  A
C860        C861   1.412       .  A
C861        C863   1.407       .  A
C861        C862   1.415       .  A
C862        H869   1.080       .  S
C863        C864   1.406       .  A
C863        H870   1.083   1_556  S
C864        C865   1.408       .  A
C864        H871   1.083   1_556  S
C865        C866   1.406       .  A
C866        H872   1.085       .  S
C873        C874   1.412       .  A
C873        C878   1.426       .  A
C874        C875   1.404       .  A
C874        H883   1.083       .  S
C875        C876   1.405       .  A
C875        H884   1.084       .  S
C876        C882   1.407       .  A
C876        C877   1.405       .  A
C877        C879   1.408       .  A
C877        C878   1.402       .  A
C878        H885   1.077       .  S
C879        C880   1.400       .  A
C879        H886   1.084       .  S
C880        C881   1.400       .  A
C880        H887   1.083       .  S
C881        C882   1.413       .  A
C882        H888   1.085       .  S
C889        C890   1.403       .  A
C889        C894   1.415       .  A
C890        C891   1.395       .  A
C890        H899   1.083       .  S
C891        C892   1.402       .  A
C891        H900   1.084       .  S
C892        C898   1.402       .  A
C892        C893   1.408       .  A
C893        C895   1.407       .  A
C893        C894   1.416       .  A
C894        H901   1.084       .  S
C895        C896   1.408       .  A
C895        H902   1.083       .  S
C896        C897   1.413       .  A
C896        H903   1.083       .  S
C897        C898   1.421       .  A
C898        H904   1.080       .  S
C905        C906   1.403       .  A
C905        C910   1.407       .  A
C906        C907   1.398       .  A
C906        H915   1.083       .  S
C907        C908   1.404       .  A
C907        H916   1.084       .  S
C908        C914   1.402       .  A
C908        C909   1.410       .  A
C909        C911   1.402   1_565  A
C909        C910   1.406       .  A
C910        H917   1.085   1_565  S
C911        C912   1.400       .  A
C911        H918   1.084       .  S
C912        C913   1.413       .  A
C912        H919   1.083       .  S
C913        C914   1.419   1_545  A
C914        H920   1.080       .  S
C921        C922   1.407   1_545  A
C921        C926   1.403       .  A
C922        C923   1.400       .  A
C922        H931   1.083       .  S
C923        C924   1.402       .  A
C923        H932   1.083       .  S
C924        C930   1.409       .  A
C924        C925   1.413   1_565  A
C925        C927   1.395       .  A
C925        C926   1.407       .  A
C926        H933   1.084       .  S
C927        C928   1.394       .  A
C927        H934   1.084       .  S
C928        C929   1.419       .  A
C928        H935   1.079       .  S
C929        C930   1.415   1_545  A
C930        H936   1.084       .  S
C937        C938   1.403       .  A
C937        C942   1.412       .  A
C938        C939   1.402       .  A
C938        H947   1.083       .  S
C939        C940   1.407       .  A
C939        H948   1.084       .  S
C940        C946   1.400       .  A
C940        C941   1.407       .  A
C941        C943   1.401       .  A
C941        C942   1.396       .  A
C942        H949   1.084       .  S
C943        C944   1.396       .  A
C943        H950   1.084       .  S
C944        C945   1.411       .  A
C944        H951   1.079       .  S
C945        C946   1.419       .  A
C946        H952   1.084       .  S
C953        C954   1.407       .  A
C953        C958   1.404       .  A
C954        C955   1.411       .  A
C954        H963   1.083       .  S
C955        C956   1.410       .  A
C955        H964   1.083       .  S
C956        C962   1.414       .  A
C956        C957   1.408       .  A
C957        C959   1.389       .  A
C957        C958   1.390       .  A
C958        H965   1.085       .  S
C959        C960   1.381       .  A
C959        H966   1.085       .  S
C960        C961   1.419       .  A
C960        H967   1.078       .  S
C961        C962   1.421       .  A
C962        H968   1.084       .  S
C969        C970   1.414       .  A
C969        C974   1.421       .  A
C970        C971   1.403       .  A
C970        H979   1.083       .  S
C971        C972   1.404       .  A
C971        H980   1.083       .  S
C972        C978   1.408       .  A
C972        C973   1.408       .  A
C973        C975   1.404       .  A
C973        C974   1.399       .  A
C974        H981   1.077       .  S
C975        C976   1.395       .  A
C975        H982   1.084       .  S
C976        C977   1.400       .  A
C976        H983   1.083       .  S
C977        C978   1.409       .  A
C978        H984   1.084       .  S
C985        C986   1.410       .  A
C985        C990   1.427       .  A
C986        C987   1.404       .  A
C986        H995   1.082       .  S
C987        C988   1.406       .  A
C987        H996   1.083       .  S
C988        C994   1.406       .  A
C988        C989   1.405       .  A
C989        C991   1.408       .  A
C989        C990   1.402       .  A
C990        H997   1.082       .  S
C991        C992   1.401       .  A
C991        H998   1.083       .  S
C992        C993   1.401       .  A
C992        H999   1.083       .  S
C993        C994   1.413       .  A
C994       H1000   1.085       .  S
C1001      C1002   1.403       .  A
C1001      C1006   1.409       .  A
C1002      C1003   1.396       .  A
C1002      H1011   1.083       .  S
C1003      C1004   1.404       .  A
C1003      H1012   1.084       .  S
C1004      C1010   1.401       .  A
C1004      C1005   1.409       .  A
C1005      C1007   1.403       .  A
C1005      C1006   1.408       .  A
C1006      H1013   1.084       .  S
C1007      C1008   1.402       .  A
C1007      H1014   1.083       .  S
C1008      C1009   1.414       .  A
C1008      H1015   1.082       .  S
C1009      C1010   1.421       .  A
C1010      H1016   1.081       .  S
C1017      C1018   1.416       .  A
C1017      C1022   1.409       .  A
C1018      C1019   1.395       .  A
C1018      H1027   1.083       .  S
C1019      C1020   1.397       .  A
C1019      H1028   1.084       .  S
C1020      C1026   1.409       .  A
C1020      C1021   1.417       .  A
C1021      C1023   1.399       .  A
C1021      C1022   1.406       .  A
C1022      H1029   1.080       .  S
C1023      C1024   1.394       .  A
C1023      H1030   1.084       .  S
C1024      C1025   1.403       .  A
C1024      H1031   1.084       .  S
C1025      C1026   1.400       .  A
C1026      H1032   1.084       .  S
C1033      C1034   1.416       .  A
C1033      C1038   1.426       .  A
C1034      C1035   1.401       .  A
C1034      H1043   1.083       .  S
C1035      C1036   1.402       .  A
C1035      H1044   1.084       .  S
C1036      C1042   1.406       .  A
C1036      C1037   1.405       .  A
C1037      C1039   1.407       .  A
C1037      C1038   1.404       .  A
C1038      H1045   1.074       .  S
C1039      C1040   1.400       .  A
C1039      H1046   1.084       .  S
C1040      C1041   1.402       .  A
C1040      H1047   1.083       .  S
C1041      C1042   1.414       .  A
C1042      H1048   1.084       .  S
C1049      C1050   1.406       .  A
C1049      C1054   1.405       .  A
C1050      C1051   1.405       .  A
C1050      H1059   1.083   1_565  S
C1051      C1052   1.407       .  A
C1051      H1060   1.083       .  S
C1052      C1058   1.414       .  A
C1052      C1053   1.412       .  A
C1053      C1055   1.395       .  A
C1053      C1054   1.403       .  A
C1054      H1061   1.085       .  S
C1055      C1056   1.391       .  A
C1055      H1062   1.084       .  S
C1056      C1057   1.417       .  A
C1056      H1063   1.083       .  S
C1057      C1058   1.419       .  A
C1058      H1064   1.080       .  S
C1065      C1066   1.401       .  A
C1065      C1070   1.412       .  A
C1066      C1067   1.399       .  A
C1066      H1075   1.083       .  S
C1067      C1068   1.407       .  A
C1067      H1076   1.084       .  S
C1068      C1074   1.402       .  A
C1068      C1069   1.407       .  A
C1069      C1071   1.404       .  A
C1069      C1070   1.407       .  A
C1070      H1077   1.085       .  S
C1071      C1072   1.403       .  A
C1071      H1078   1.083       .  S
C1072      C1073   1.413       .  A
C1072      H1079   1.083       .  S
C1073      C1074   1.425       .  A
C1074      H1080   1.077       .  S
C1081      C1082   1.403       .  A
C1081      C1086   1.403       .  A
C1082      C1083   1.407       .  A
C1082      H1091   1.083       .  S
C1083      C1084   1.410       .  A
C1083      H1092   1.084       .  S
C1084      C1090   1.410       .  A
C1084      C1085   1.409       .  A
C1085      C1087   1.393       .  A
C1085      C1086   1.394       .  A
C1086      H1093   1.086       .  S
C1087      C1088   1.387       .  A
C1087      H1094   1.084       .  S
C1088      C1089   1.419       .  A
C1088      H1095   1.082       .  S
C1089      C1090   1.422       .  A
C1090      H1096   1.076       .  S
C1097      C1098   1.404       .  A
C1097      C1102   1.406       .  A
C1098      C1099   1.401       .  A
C1098      H1107   1.083       .  S
C1099      C1100   1.405       .  A
C1099      H1108   1.083       .  S
C1100      C1106   1.408       .  A
C1100      C1101   1.411       .  A
C1101      C1103   1.400       .  A
C1101      C1102   1.408       .  A
C1102      H1109   1.084       .  S
C1103      C1104   1.398       .  A
C1103      H1110   1.083       .  S
C1104      C1105   1.414       .  A
C1104      H1111   1.083       .  S
C1105      C1106   1.419       .  A
C1106      H1112   1.079       .  S
C1113      C1114   1.416       .  A
C1113      C1118   1.425       .  A
C1114      C1115   1.402       .  A
C1114      H1123   1.081       .  S
C1115      C1116   1.402       .  A
C1115      H1124   1.085       .  S
C1116      C1122   1.405       .  A
C1116      C1117   1.404       .  A
C1117      C1119   1.408       .  A
C1117      C1118   1.405       .  A
C1118      H1125   1.074       .  S
C1119      C1120   1.402       .  A
C1119      H1126   1.085       .  S
C1120      C1121   1.404       .  A
C1120      H1127   1.083       .  S
C1121      C1122   1.416       .  A
C1122      H1128   1.085       .  S
C1129      C1130   1.414       .  A
C1129      C1134   1.426       .  A
C1130      C1131   1.387       .  A
C1130      H1139   1.075       .  S
C1131      C1132   1.394       .  A
C1131      H1140   1.084       .  S
C1132      C1138   1.394       .  A
C1132      C1133   1.406       .  A
C1133      C1135   1.413       .  A
C1133      C1134   1.415       .  A
C1134      H1141   1.084       .  S
C1135      C1136   1.414       .  A
C1135      H1142   1.083       .  S
C1136      C1137   1.406       .  A
C1136      H1143   1.082       .  S
C1137      C1138   1.409       .  A
C1138      H1144   1.085       .  S
C1145      C1146   1.410       .  A
C1145      C1150   1.407   1_655  A
C1146      C1147   1.382       .  A
C1146      H1155   1.084       .  S
C1147      C1148   1.392       .  A
C1147      H1156   1.084       .  S
C1148      C1154   1.394       .  A
C1148      C1149   1.413   1_655  A
C1149      C1151   1.401       .  A
C1149      C1150   1.415       .  A
C1150      H1157   1.084       .  S
C1151      C1152   1.403       .  A
C1151      H1158   1.083       .  S
C1152      C1153   1.418       .  A
C1152      H1159   1.083       .  S
C1153      C1154   1.408   1_455  A
C1154      H1160   1.077       .  S
C1161      C1162   1.417   1_655  A
C1161      C1166   1.418       .  A
C1162      C1163   1.398   1_455  A
C1162      H1171   1.077       .  S
C1163      C1164   1.399       .  A
C1163      H1172   1.084   1_655  S
C1164      C1170   1.404       .  A
C1164      C1165   1.409       .  A
C1165      C1167   1.400       .  A
C1165      C1166   1.398       .  A
C1166      H1173   1.084       .  S
C1167      C1168   1.394       .  A
C1167      H1174   1.084       .  S
C1168      C1169   1.407       .  A
C1168      H1175   1.083       .  S
C1169      C1170   1.407       .  A
C1170      H1176   1.084       .  S
C1177      C1178   1.413       .  A
C1177      C1182   1.429       .  A
C1178      C1179   1.385       .  A
C1178      H1187   1.076       .  S
C1179      C1180   1.394       .  A
C1179      H1188   1.085       .  S
C1180      C1186   1.389       .  A
C1180      C1181   1.405       .  A
C1181      C1183   1.414       .  A
C1181      C1182   1.414       .  A
C1182      H1189   1.084       .  S
C1183      C1184   1.415       .  A
C1183      H1190   1.083       .  S
C1184      C1185   1.406       .  A
C1184      H1191   1.083       .  S
C1185      C1186   1.409       .  A
C1186      H1192   1.085       .  S
C1193      C1194   1.407       .  A
C1193      C1198   1.410       .  A
C1194      C1195   1.412       .  A
C1194      H1203   1.083       .  S
C1195      C1196   1.411       .  A
C1195      H1204   1.083       .  S
C1196      C1202   1.416       .  A
C1196      C1197   1.407       .  A
C1197      C1199   1.395       .  A
C1197      C1198   1.398       .  A
C1198      H1205   1.084       .  S
C1199      C1200   1.390       .  A
C1199      H1206   1.084       .  S
C1200      C1201   1.416       .  A
C1200      H1207   1.076       .  S
C1201      C1202   1.425       .  A
C1202      H1208   1.084       .  S
C1209      C1210   1.407       .  A
C1209      C1214   1.406       .  A
C1210      C1211   1.404       .  A
C1210      H1219   1.083   1_545  S
C1211      C1212   1.405       .  A
C1211      H1220   1.084       .  S
C1212      C1218   1.416       .  A
C1212      C1213   1.413       .  A
C1213      C1215   1.396       .  A
C1213      C1214   1.407       .  A
C1214      H1221   1.084       .  S
C1215      C1216   1.393       .  A
C1215      H1222   1.084       .  S
C1216      C1217   1.419       .  A
C1216      H1223   1.083       .  S
C1217      C1218   1.419       .  A
C1218      H1224   1.081       .  S
C1225      C1226   1.421       .  A
C1225      C1230   1.417       .  A
C1226      C1227   1.384       .  A
C1226      H1235   1.083       .  S
C1227      C1228   1.390       .  A
C1227      H1236   1.084       .  S
C1228      C1234   1.399       .  A
C1228      C1229   1.414       .  A
C1229      C1231   1.407       .  A
C1229      C1230   1.419       .  A
C1230      H1237   1.079       .  S
C1231      C1232   1.408       .  A
C1231      H1238   1.083       .  S
C1232      C1233   1.410       .  A
C1232      H1239   1.083       .  S
C1233      C1234   1.402       .  A
C1234      H1240   1.084       .  S
C1241      C1242   1.421       .  A
C1241      C1246   1.427       .  A
C1242      C1243   1.381       .  A
C1242      H1251   1.079       .  S
C1243      C1244   1.388       .  A
C1243      H1252   1.085       .  S
C1244      C1250   1.393       .  A
C1244      C1245   1.408       .  A
C1245      C1247   1.415       .  A
C1245      C1246   1.425       .  A
C1246      H1253   1.083       .  S
C1247      C1248   1.419       .  A
C1247      H1254   1.083       .  S
C1248      C1249   1.409       .  A
C1248      H1255   1.082       .  S
C1249      C1250   1.405       .  A
C1250      H1256   1.085       .  S
C1257      C1258   1.417       .  A
C1257      C1262   1.416       .  A
C1258      C1259   1.385       .  A
C1258      H1267   1.084       .  S
C1259      C1260   1.392       .  A
C1259      H1268   1.084       .  S
C1260      C1266   1.398       .  A
C1260      C1261   1.415       .  A
C1261      C1263   1.407       .  A
C1261      C1262   1.417       .  A
C1262      H1269   1.082       .  S
C1263      C1264   1.407       .  A
C1263      H1270   1.083       .  S
C1264      C1265   1.407       .  A
C1264      H1271   1.083   1_455  S
C1265      C1266   1.399       .  A
C1266      H1272   1.085       .  S
C1273      C1274   1.407       .  A
C1273      C1278   1.406       .  A
C1274      C1275   1.413       .  A
C1274      H1283   1.081       .  S
C1275      C1276   1.411       .  A
C1275      H1284   1.086       .  S
C1276      C1282   1.417       .  A
C1276      C1277   1.408       .  A
C1277      C1279   1.390       .  A
C1277      C1278   1.393       .  A
C1278      H1285   1.088       .  S
C1279      C1280   1.384       .  A
C1279      H1286   1.088       .  S
C1280      C1281   1.419       .  A
C1280      H1287   1.075       .  S
C1281      C1282   1.424       .  A
C1282      H1288   1.086       .  S
C1289      C1290   1.407       .  A
C1289      C1294   1.405       .  A
C1290      C1291   1.405       .  A
C1290      H1299   1.083       .  S
C1291      C1292   1.407       .  A
C1291      H1300   1.083       .  S
C1292      C1298   1.412       .  A
C1292      C1293   1.411       .  A
C1293      C1295   1.394       .  A
C1293      C1294   1.399       .  A
C1294      H1301   1.084       .  S
C1295      C1296   1.388       .  A
C1295      H1302   1.084       .  S
C1296      C1297   1.417       .  A
C1296      H1303   1.083       .  S
C1297      C1298   1.419       .  A
C1298      H1304   1.079       .  S
C1305      C1306   1.407       .  A
C1305      C1310   1.407   1_554  A
C1306      C1307   1.412       .  A
C1306      H1315   1.083       .  S
C1307      C1308   1.411       .  A
C1307      H1316   1.083       .  S
C1308      C1314   1.415       .  A
C1308      C1309   1.408   1_554  A
C1309      C1311   1.393       .  A
C1309      C1310   1.394       .  A
C1310      H1317   1.084       .  S
C1311      C1312   1.386       .  A
C1311      H1318   1.084       .  S
C1312      C1313   1.416       .  A
C1312      H1319   1.078       .  S
C1313      C1314   1.424   1_556  A
C1314      H1320   1.083       .  S
C1321      C1322   1.405       .  A
C1321      C1326   1.409       .  A
C1322      C1323   1.393       .  A
C1322      H1331   1.084       .  S
C1323      C1324   1.399       .  A
C1323      H1332   1.084       .  S
C1324      C1330   1.402       .  A
C1324      C1325   1.412       .  A
C1325      C1327   1.404       .  A
C1325      C1326   1.416       .  A
C1326      H1333   1.084       .  S
C1327      C1328   1.406       .  A
C1327      H1334   1.083       .  S
C1328      C1329   1.416       .  A
C1328      H1335   1.079       .  S
C1329      C1330   1.414       .  A
C1330      H1336   1.084       .  S
C1337      C1338   1.415       .  A
C1337      C1342   1.415       .  A
C1338      C1339   1.402       .  A
C1338      H1347   1.083       .  S
C1339      C1340   1.401       .  A
C1339      H1348   1.083       .  S
C1340      C1346   1.416       .  A
C1340      C1341   1.414       .  A
C1341      C1343   1.401       .  A
C1341      C1342   1.410       .  A
C1342      H1349   1.082       .  S
C1343      C1344   1.397       .  A
C1343      H1350   1.084       .  S
C1344      C1345   1.406       .  A
C1344      H1351   1.084       .  S
C1345      C1346   1.408       .  A
C1346      H1352   1.084       .  S
C1353      C1354   1.414       .  A
C1353      C1358   1.410       .  A
C1354      C1355   1.405       .  A
C1354      H1363   1.079       .  S
C1355      C1356   1.405       .  A
C1355      H1364   1.083       .  S
C1356      C1362   1.411       .  A
C1356      C1357   1.411       .  A
C1357      C1359   1.394       .  A
C1357      C1358   1.390       .  A
C1358      H1365   1.085       .  S
C1359      C1360   1.385       .  A
C1359      H1366   1.084       .  S
C1360      C1361   1.407       .  A
C1360      H1367   1.083       .  S
C1361      C1362   1.409       .  A
C1362      H1368   1.084       .  S
C1369      C1370   1.418       .  A
C1369      C1374   1.418   1_554  A
C1370      C1371   1.389       .  A
C1370      H1379   1.079       .  S
C1371      C1372   1.393       .  A
C1371      H1380   1.084       .  S
C1372      C1378   1.397       .  A
C1372      C1373   1.411   1_554  A
C1373      C1375   1.409       .  A
C1373      C1374   1.410       .  A
C1374      H1381   1.084       .  S
C1375      C1376   1.406       .  A
C1375      H1382   1.083       .  S
C1376      C1377   1.402       .  A
C1376      H1383   1.083       .  S
C1377      C1378   1.399   1_556  A
C1378      H1384   1.085       .  S
C1385      C1386   1.407       .  A
C1385      C1390   1.405       .  A
C1386      C1387   1.404       .  A
C1386      H1395   1.083       .  S
C1387      C1388   1.406       .  A
C1387      H1396   1.083       .  S
C1388      C1394   1.412       .  A
C1388      C1389   1.412       .  A
C1389      C1391   1.395       .  A
C1389      C1390   1.402       .  A
C1390      H1397   1.085       .  S
C1391      C1392   1.390       .  A
C1391      H1398   1.084       .  S
C1392      C1393   1.417       .  A
C1392      H1399   1.083       .  S
C1393      C1394   1.418       .  A
C1394      H1400   1.079       .  S
C1401      C1402   1.417       .  A
C1401      C1406   1.409       .  A
C1402      C1403   1.402       .  A
C1402      H1411   1.083       .  S
C1403      C1404   1.401       .  A
C1403      H1412   1.083       .  S
C1404      C1410   1.415       .  A
C1404      C1405   1.414       .  A
C1405      C1407   1.394       .  A
C1405      C1406   1.400       .  A
C1406      H1413   1.080       .  S
C1407      C1408   1.386       .  A
C1407      H1414   1.084       .  S
C1408      C1409   1.411       .  A
C1408      H1415   1.084       .  S
C1409      C1410   1.408       .  A
C1410      H1416   1.084       .  S
C1417      C1418   1.407       .  A
C1417      C1422   1.408       .  A
C1418      C1419   1.392       .  A
C1418      H1427   1.083       .  S
C1419      C1420   1.398       .  A
C1419      H1428   1.084       .  S
C1420      C1426   1.397       .  A
C1420      C1421   1.410       .  A
C1421      C1423   1.400       .  A
C1421      C1422   1.406       .  A
C1422      H1429   1.084       .  S
C1423      C1424   1.400       .  A
C1423      H1430   1.084       .  S
C1424      C1425   1.415       .  A
C1424      H1431   1.078       .  S
C1425      C1426   1.413       .  A
C1426      H1432   1.084       .  S
C1433      C1434   1.413       .  A
C1433      C1438   1.416   1_545  A
C1434      C1435   1.393       .  A
C1434      H1443   1.079       .  S
C1435      C1436   1.399       .  A
C1435      H1444   1.084       .  S
C1436      C1442   1.396       .  A
C1436      C1437   1.408   1_545  A
C1437      C1439   1.405       .  A
C1437      C1438   1.401       .  A
C1438      H1445   1.084       .  S
C1439      C1440   1.401       .  A
C1439      H1446   1.084       .  S
C1440      C1441   1.404       .  A
C1440      H1447   1.083       .  S
C1441      C1442   1.408   1_565  A
C1442      H1448   1.084       .  S
C1449      C1450   1.418       .  A
C1449      C1454   1.410       .  A
C1450      C1451   1.399       .  A
C1450      H1459   1.079       .  S
C1451      C1452   1.399       .  A
C1451      H1460   1.084       .  S
C1452      C1458   1.411       .  A
C1452      C1453   1.414       .  A
C1453      C1455   1.397   1_545  A
C1453      C1454   1.399       .  A
C1454      H1461   1.085   1_545  S
C1455      C1456   1.390       .  A
C1455      H1462   1.084       .  S
C1456      C1457   1.405   1_565  A
C1456      H1463   1.084       .  S
C1457      C1458   1.403       .  A
C1458      H1464   1.084       .  S
C1465      C1466   1.414       .  A
C1465      C1470   1.415       .  A
C1466      C1467   1.405       .  A
C1466      H1475   1.078       .  S
C1467      C1468   1.404       .  A
C1467      H1476   1.083       .  S
C1468      C1474   1.409       .  A
C1468      C1469   1.409       .  A
C1469      C1471   1.397       .  A
C1469      C1470   1.392       .  A
C1470      H1477   1.085       .  S
C1471      C1472   1.389       .  A
C1471      H1478   1.084       .  S
C1472      C1473   1.407       .  A
C1472      H1479   1.083       .  S
C1473      C1474   1.411       .  A
C1474      H1480   1.084       .  S
C1481      C1482   1.406       .  A
C1481      C1486   1.407       .  A
C1482      C1483   1.413       .  A
C1482      H1491   1.083       .  S
C1483      C1484   1.412       .  A
C1483      H1492   1.083       .  S
C1484      C1490   1.414       .  A
C1484      C1485   1.407       .  A
C1485      C1487   1.392       .  A
C1485      C1486   1.390       .  A
C1486      H1493   1.084       .  S
C1487      C1488   1.384       .  A
C1487      H1494   1.084       .  S
C1488      C1489   1.416       .  A
C1488      H1495   1.077       .  S
C1489      C1490   1.424       .  A
C1490      H1496   1.083       .  S
C1497      C1498   1.408       .  A
C1497      C1502   1.400       .  A
C1498      C1499   1.406       .  A
C1498      H1507   1.083   1_554  S
C1499      C1500   1.407       .  A
C1499      H1508   1.083       .  S
C1500      C1506   1.414       .  A
C1500      C1501   1.413       .  A
C1501      C1503   1.392       .  A
C1501      C1502   1.395       .  A
C1502      H1509   1.085       .  S
C1503      C1504   1.383       .  A
C1503      H1510   1.084       .  S
C1504      C1505   1.415       .  A
C1504      H1511   1.084       .  S
C1505      C1506   1.416       .  A
C1506      H1512   1.081       .  S
C1513      C1514   1.408       .  A
C1513      C1518   1.406       .  A
C1514      C1515   1.396       .  A
C1514      H1523   1.084       .  S
C1515      C1516   1.399       .  A
C1515      H1524   1.084       .  S
C1516      C1522   1.407       .  A
C1516      C1517   1.413       .  A
C1517      C1519   1.398       .  A
C1517      C1518   1.413       .  A
C1518      H1525   1.084       .  S
C1519      C1520   1.399       .  A
C1519      H1526   1.084       .  S
C1520      C1521   1.419       .  A
C1520      H1527   1.079       .  S
C1521      C1522   1.413       .  A
C1522      H1528   1.084       .  S
C1529      C1530   1.413       .  A
C1529      C1534   1.416   1_556  A
C1530      C1531   1.396       .  A
C1530      H1539   1.080       .  S
C1531      C1532   1.400       .  A
C1531      H1540   1.084       .  S
C1532      C1538   1.400       .  A
C1532      C1533   1.410   1_556  A
C1533      C1535   1.406       .  A
C1533      C1534   1.400       .  A
C1534      H1541   1.084       .  S
C1535      C1536   1.400       .  A
C1535      H1542   1.084       .  S
C1536      C1537   1.401       .  A
C1536      H1543   1.083       .  S
C1537      C1538   1.404   1_554  A
C1538      H1544   1.085       .  S
C1545      C1546   1.419       .  A
C1545      C1550   1.408       .  A
C1546      C1547   1.402       .  A
C1546      H1555   1.083       .  S
C1547      C1548   1.400       .  A
C1547      H1556   1.083       .  S
C1548      C1554   1.417       .  A
C1548      C1549   1.415       .  A
C1549      C1551   1.393       .  A
C1549      C1550   1.403       .  A
C1550      H1557   1.081       .  S
C1551      C1552   1.388       .  A
C1551      H1558   1.084       .  S
C1552      C1553   1.413       .  A
C1552      H1559   1.083       .  S
C1553      C1554   1.408       .  A
C1554      H1560   1.084       .  S
C1561      C1562   1.403       .  A
C1561      C1566   1.408       .  A
C1562      C1563   1.407       .  A
C1562      H1571   1.083       .  S
C1563      C1564   1.410       .  A
C1563      H1572   1.083       .  S
C1564      C1570   1.405       .  A
C1564      C1565   1.407       .  A
C1565      C1567   1.400       .  A
C1565      C1566   1.395       .  A
C1566      H1573   1.085       .  S
C1567      C1568   1.393       .  A
C1567      H1574   1.084       .  S
C1568      C1569   1.410       .  A
C1568      H1575   1.080       .  S
C1569      C1570   1.422       .  A
C1570      H1576   1.084       .  S
C1577      C1578   1.407       .  A
C1577      C1582   1.404       .  A
C1578      C1579   1.404       .  A
C1578      H1587   1.083       .  S
C1579      C1580   1.405       .  A
C1579      H1588   1.083       .  S
C1580      C1586   1.412       .  A
C1580      C1581   1.412       .  A
C1581      C1583   1.394       .  A
C1581      C1582   1.400       .  A
C1582      H1589   1.084       .  S
C1583      C1584   1.388       .  A
C1583      H1590   1.084       .  S
C1584      C1585   1.418       .  A
C1584      H1591   1.084       .  S
C1585      C1586   1.417       .  A
C1586      H1592   1.081       .  S
C1593      C1594   1.406       .  A
C1593      C1598   1.402       .  A
C1594      C1595   1.401       .  A
C1594      H1603   1.084       .  S
C1595      C1596   1.403       .  A
C1595      H1604   1.083       .  S
C1596      C1602   1.416       .  A
C1596      C1597   1.416       .  A
C1597      C1599   1.396       .  A
C1597      C1598   1.412       .  A
C1598      H1605   1.084       .  S
C1599      C1600   1.395       .  A
C1599      H1606   1.084       .  S
C1600      C1601   1.418       .  A
C1600      H1607   1.083       .  S
C1601      C1602   1.414       .  A
C1602      H1608   1.079       .  S
C1609      C1610   1.405       .  A
C1609      C1614   1.403       .  A
C1610      C1611   1.411       .  A
C1610      H1619   1.083       .  S
C1611      C1612   1.411       .  A
C1611      H1620   1.083       .  S
C1612      C1618   1.412       .  A
C1612      C1613   1.408       .  A
C1613      C1615   1.391       .  A
C1613      C1614   1.389       .  A
C1614      H1621   1.085       .  S
C1615      C1616   1.383       .  A
C1615      H1622   1.084       .  S
C1616      C1617   1.417       .  A
C1616      H1623   1.080       .  S
C1617      C1618   1.421       .  A
C1618      H1624   1.084       .  S
C1625      C1626   1.414       .  A
C1625      C1630   1.418       .  A
C1626      C1627   1.384       .  A
C1626      H1635   1.083       .  S
C1627      C1628   1.393       .  A
C1627      H1636   1.084       .  S
C1628      C1634   1.392       .  A
C1628      C1629   1.411       .  A
C1629      C1631   1.409       .  A
C1629      C1630   1.410       .  A
C1630      H1637   1.080       .  S
C1631      C1632   1.406       .  A
C1631      H1638   1.084       .  S
C1632      C1633   1.404       .  A
C1632      H1639   1.083       .  S
C1633      C1634   1.402       .  A
C1634      H1640   1.086       .  S
C1641      C1642   1.415       .  A
C1641      C1646   1.419       .  A
C1642      C1643   1.386       .  A
C1642      H1651   1.081       .  S
C1643      C1644   1.394       .  A
C1643      H1652   1.084       .  S
C1644      C1650   1.391       .  A
C1644      C1645   1.408       .  A
C1645      C1647   1.410       .  A
C1645      C1646   1.410       .  A
C1646      H1653   1.083       .  S
C1647      C1648   1.409       .  A
C1647      H1654   1.083       .  S
C1648      C1649   1.405       .  A
C1648      H1655   1.083       .  S
C1649      C1650   1.406       .  A
C1650      H1656   1.085       .  S
C1657      C1658   1.415       .  A
C1657      C1662   1.417       .  A
C1658      C1659   1.382       .  A
C1658      H1667   1.083       .  S
C1659      C1660   1.391       .  A
C1659      H1668   1.084       .  S
C1660      C1666   1.392       .  A
C1660      C1661   1.412       .  A
C1661      C1663   1.408       .  A
C1661      C1662   1.413       .  A
C1662      H1669   1.080       .  S
C1663      C1664   1.407       .  A
C1663      H1670   1.083       .  S
C1664      C1665   1.406       .  A
C1664      H1671   1.083       .  S
C1665      C1666   1.400       .  A
C1666      H1672   1.085       .  S
C1673      C1674   1.416       .  A
C1673      C1678   1.414       .  A
C1674      C1675   1.401       .  A
C1674      H1683   1.079       .  S
C1675      C1676   1.400       .  A
C1675      H1684   1.084       .  S
C1676      C1682   1.410       .  A
C1676      C1677   1.411       .  A
C1677      C1679   1.399       .  A
C1677      C1678   1.403       .  A
C1678      H1685   1.084       .  S
C1679      C1680   1.395       .  A
C1679      H1686   1.084       .  S
C1680      C1681   1.408       .  A
C1680      H1687   1.083       .  S
C1681      C1682   1.408       .  A
C1682      H1688   1.084       .  S
C1689      C1690   1.414       .  A
C1689      C1694   1.418       .  A
C1690      C1691   1.406       .  A
C1690      H1699   1.083       .  S
C1691      C1692   1.406       .  A
C1691      H1700   1.084       .  S
C1692      C1698   1.413       .  A
C1692      C1693   1.409       .  A
C1693      C1695   1.401       .  A
C1693      C1694   1.399       .  A
C1694      H1701   1.080       .  S
C1695      C1696   1.393       .  A
C1695      H1702   1.084       .  S
C1696      C1697   1.405       .  A
C1696      H1703   1.083       .  S
C1697      C1698   1.414       .  A
C1698      H1704   1.084       .  S
C1705      C1706   1.415       .  A
C1705      C1710   1.414       .  A
C1706      C1707   1.401       .  A
C1706      H1715   1.079       .  S
C1707      C1708   1.401       .  A
C1707      H1716   1.084       .  S
C1708      C1714   1.409       .  A
C1708      C1709   1.412       .  A
C1709      C1711   1.401       .  A
C1709      C1710   1.402       .  A
C1710      H1717   1.084       .  S
C1711      C1712   1.396       .  A
C1711      H1718   1.084       .  S
C1712      C1713   1.403       .  A
C1712      H1719   1.084       .  S
C1713      C1714   1.406       .  A
C1714      H1720   1.084       .  S
C1721      C1722   1.405       .  A
C1721      C1726   1.405       .  A
C1722      C1723   1.413       .  A
C1722      H1731   1.083       .  S
C1723      C1724   1.413       .  A
C1723      H1732   1.083       .  S
C1724      C1730   1.414       .  A
C1724      C1725   1.407       .  A
C1725      C1727   1.392       .  A
C1725      C1726   1.389       .  A
C1726      H1733   1.085       .  S
C1727      C1728   1.384       .  A
C1727      H1734   1.084       .  S
C1728      C1729   1.415       .  A
C1728      H1735   1.079       .  S
C1729      C1730   1.424       .  A
C1730      H1736   1.084       .  S
C1737      C1738   1.405       .  A
C1737      C1742   1.407       .  A
C1738      C1739   1.394       .  A
C1738      H1747   1.084       .  S
C1739      C1740   1.400       .  A
C1739      H1748   1.084       .  S
C1740      C1746   1.401       .  A
C1740      C1741   1.411       .  A
C1741      C1743   1.402       .  A
C1741      C1742   1.409       .  A
C1742      H1749   1.084       .  S
C1743      C1744   1.402       .  A
C1743      H1750   1.083       .  S
C1744      C1745   1.414       .  A
C1744      H1751   1.078       .  S
C1745      C1746   1.415       .  A
C1746      H1752   1.085       .  S
C1753      C1754   1.407       .  A
C1753      C1758   1.411       .  A
C1754      C1755   1.391       .  A
C1754      H1763   1.083       .  S
C1755      C1756   1.398       .  A
C1755      H1764   1.084       .  S
C1756      C1762   1.395       .  A
C1756      C1757   1.409       .  A
C1757      C1759   1.404       .  A
C1757      C1758   1.410       .  A
C1758      H1765   1.084       .  S
C1759      C1760   1.405       .  A
C1759      H1766   1.083       .  S
C1760      C1761   1.414       .  A
C1760      H1767   1.078   1_655  S
C1761      C1762   1.416       .  A
C1762      H1768   1.084       .  S
C1769      C1770   1.418       .  A
C1769      C1774   1.418       .  A
C1770      C1771   1.399       .  A
C1770      H1779   1.077       .  S
C1771      C1772   1.399       .  A
C1771      H1780   1.084       .  S
C1772      C1778   1.407       .  A
C1772      C1773   1.409       .  A
C1773      C1775   1.400       .  A
C1773      C1774   1.401       .  A
C1774      H1781   1.084       .  S
C1775      C1776   1.395       .  A
C1775      H1782   1.084       .  S
C1776      C1777   1.408       .  A
C1776      H1783   1.083       .  S
C1777      C1778   1.409       .  A
C1778      H1784   1.084       .  S
C1785      C1786   1.417       .  A
C1785      C1790   1.409       .  A
C1786      C1787   1.400       .  A
C1786      H1795   1.080       .  S
C1787      C1788   1.400       .  A
C1787      H1796   1.083       .  S
C1788      C1794   1.410       .  A
C1788      C1789   1.413       .  A
C1789      C1791   1.397       .  A
C1789      C1790   1.398       .  A
C1790      H1797   1.083       .  S
C1791      C1792   1.390       .  A
C1791      H1798   1.084       .  S
C1792      C1793   1.404       .  A
C1792      H1799   1.084       .  S
C1793      C1794   1.404       .  A
C1794      H1800   1.084       .  S
C1801      C1802   1.414       .  A
C1801      C1806   1.411       .  A
C1802      C1803   1.397       .  A
C1802      H1811   1.082       .  S
C1803      C1804   1.398       .  A
C1803      H1812   1.083       .  S
C1804      C1810   1.405       .  A
C1804      C1805   1.413       .  A
C1805      C1807   1.399       .  A
C1805      C1806   1.399       .  A
C1806      H1813   1.083   1_545  S
C1807      C1808   1.393       .  A
C1807      H1814   1.084   1_545  S
C1808      C1809   1.406       .  A
C1808      H1815   1.084       .  S
C1809      C1810   1.403       .  A
C1810      H1816   1.084       .  S
C1817      C1818   1.403       .  A
C1817      C1822   1.407       .  A
C1818      C1819   1.404       .  A
C1818      H1827   1.083       .  S
C1819      C1820   1.407       .  A
C1819      H1828   1.083       .  S
C1820      C1826   1.409       .  A
C1820      C1821   1.411       .  A
C1821      C1823   1.400       .  A
C1821      C1822   1.406       .  A
C1822      H1829   1.085       .  S
C1823      C1824   1.397       .  A
C1823      H1830   1.084       .  S
C1824      C1825   1.413       .  A
C1824      H1831   1.082       .  S
C1825      C1826   1.418       .  A
C1826      H1832   1.083       .  S
C1833      C1834   1.402       .  A
C1833      C1838   1.408       .  A
C1834      C1835   1.402       .  A
C1834      H1843   1.083       .  S
C1835      C1836   1.407       .  A
C1835      H1844   1.084       .  S
C1836      C1842   1.406       .  A
C1836      C1837   1.409       .  A
C1837      C1839   1.399       .  A
C1837      C1838   1.401       .  A
C1838      H1845   1.085       .  S
C1839      C1840   1.396       .  A
C1839      H1846   1.084       .  S
C1840      C1841   1.413       .  A
C1840      H1847   1.083       .  S
C1841      C1842   1.421       .  A
C1842      H1848   1.078       .  S
C1849      C1850   1.406       .  A
C1849      C1854   1.406       .  A
C1850      C1851   1.413       .  A
C1850      H1859   1.083       .  S
C1851      C1852   1.412       .  A
C1851      H1860   1.083       .  S
C1852      C1858   1.415       .  A
C1852      C1853   1.408       .  A
C1853      C1855   1.392       .  A
C1853      C1854   1.390       .  A
C1854      H1861   1.085       .  S
C1855      C1856   1.383       .  A
C1855      H1862   1.084       .  S
C1856      C1857   1.415       .  A
C1856      H1863   1.080       .  S
C1857      C1858   1.422       .  A
C1858      H1864   1.083       .  S
C1865      C1866   1.404       .  A
C1865      C1870   1.411       .  A
C1866      C1867   1.401       .  A
C1866      H1875   1.083       .  S
C1867      C1868   1.406       .  A
C1867      H1876   1.083       .  S
C1868      C1874   1.400       .  A
C1868      C1869   1.407       .  A
C1869      C1871   1.401       .  A
C1869      C1870   1.396       .  A
C1870      H1877   1.084       .  S
C1871      C1872   1.395       .  A
C1871      H1878   1.084       .  S
C1872      C1873   1.410       .  A
C1872      H1879   1.079       .  S
C1873      C1874   1.418       .  A
C1874      H1880   1.084       .  S
C1881      C1882   1.404       .  A
C1881      C1886   1.404       .  A
C1882      C1883   1.402       .  A
C1882      H1891   1.083       .  S
C1883      C1884   1.406       .  A
C1883      H1892   1.083       .  S
C1884      C1890   1.408       .  A
C1884      C1885   1.412       .  A
C1885      C1887   1.397       .  A
C1885      C1886   1.402       .  A
C1886      H1893   1.085       .  S
C1887      C1888   1.393       .  A
C1887      H1894   1.084       .  S
C1888      C1889   1.413       .  A
C1888      H1895   1.083       .  S
C1889      C1890   1.416       .  A
C1890      H1896   1.082       .  S
C1897      C1898   1.406       .  A
C1897      C1902   1.406       .  A
C1898      C1899   1.396       .  A
C1898      H1907   1.083       .  S
C1899      C1900   1.401       .  A
C1899      H1908   1.084       .  S
C1900      C1906   1.401       .  A
C1900      C1901   1.411       .  A
C1901      C1903   1.400       .  A
C1901      C1902   1.405       .  A
C1902      H1909   1.084       .  S
C1903      C1904   1.398       .  A
C1903      H1910   1.084       .  S
C1904      C1905   1.415       .  A
C1904      H1911   1.079       .  S
C1905      C1906   1.414       .  A
C1906      H1912   1.084       .  S
C1913      C1914   1.403       .  A
C1913      C1918   1.401       .  A
C1914      C1915   1.405       .  A
C1914      H1923   1.083       .  S
C1915      C1916   1.407       .  A
C1915      H1924   1.083       .  S
C1916      C1922   1.411       .  A
C1916      C1917   1.411       .  A
C1917      C1919   1.395       .  A
C1917      C1918   1.402       .  A
C1918      H1925   1.085       .  S
C1919      C1920   1.393       .  A
C1919      H1926   1.084       .  S
C1920      C1921   1.418       .  A
C1920      H1927   1.079       .  S
C1921      C1922   1.419       .  A
C1922      H1928   1.084       .  S
