geometry optimzed in LAMMPS
_audit_creation_date              2020-11-30 
_audit_creation_method            'lammps2cif' 
_symmetry_space_group_name_H-M    'P1' 
_symmetry_Int_Tables_number       1 
_symmetry_cell_setting            triclinic 
loop_ 
_symmetry_equiv_pos_as_xyz 
  x,y,z 
_cell_length_a                    61.11369415 
_cell_length_b                    61.179921956702046 
_cell_length_c                    60.96346011723844 
_cell_angle_alpha                 90.51396814006812 
_cell_angle_beta                  90.13227112963706 
_cell_angle_gamma                 89.91484707480278 
loop_ 
_atom_site_label 
_atom_site_type_symbol 
_atom_site_fract_x 
_atom_site_fract_y 
_atom_site_fract_z 
_atom_site_charge 
O1          O  0.60790609  0.66345005  0.64512568    -0.77900
C2          C  0.66267298  0.66016591  0.59631118     0.83200
O3          O  0.58579331  0.62133531  0.57919709    -0.79000
O4          O  0.65458412  0.58747012  0.58687813    -0.80500
O5          O  0.65046120  0.59873742  0.66330870    -0.80300
O6          O  0.61123585  0.63701633  0.66977637    -0.78900
Zn7        Zn  0.61823118  0.64973899  0.61644469     1.55700
O8          O  0.67428067  0.60166301  0.63583199    -0.80300
Cd9        Cd  0.62138289  0.61069502  0.65075375     1.59700
Cd10       Cd  0.60259760  0.60071030  0.60126117     1.59600
O11         O  0.59737315  0.58752610  0.65422112    -0.80300
O12         O  0.62407033  0.61868556  0.61933699    -1.90800
Cd13       Cd  0.65475414  0.61245576  0.60990654     1.59900
O14         O  0.57984358  0.58530874  0.62206333    -0.80200
O15         O  0.66870286  0.64017826  0.59636152    -0.78900
C16         C  0.58416612  0.64217913  0.57986151     0.83600
C17         C  0.60604310  0.65649352  0.66468991     0.83300
O18         O  0.64453278  0.66626642  0.60465718    -0.77900
C19         C  0.66968153  0.59653612  0.65553046     0.84100
O20         O  0.59475611  0.65365168  0.59382582    -0.77900
C21         C  0.58159865  0.58058905  0.64239191     0.84200
C22         C  0.64019804  0.57438144  0.57923424     0.84600
O23         O  0.61983940  0.57630941  0.58372065    -0.80400
O24         O  0.86344631  0.59745768  0.34108217    -0.77900
C25         C  0.91036580  0.65334055  0.34228259     0.83200
O26         O  0.93018080  0.57863845  0.38203200    -0.79000
O27         O  0.92112936  0.64786233  0.41470192    -0.80500
O28         O  0.84432720  0.64116177  0.40363972    -0.80300
O29         O  0.83906686  0.59905276  0.36810425    -0.78900
Zn30       Zn  0.89183926  0.60879706  0.35388913     1.55700
O31         O  0.87147651  0.66523019  0.40050706    -0.80300
Cd32       Cd  0.85797729  0.61174026  0.39357944     1.59700
Cd33       Cd  0.90816426  0.59503317  0.40326074     1.59600
O34         O  0.85596483  0.58950756  0.41851936    -0.80300
O35         O  0.88917155  0.61515005  0.38501612    -1.90800
Cd36       Cd  0.89775123  0.64612158  0.39035328     1.59900
O37         O  0.88826262  0.57236874  0.42025636    -0.80200
O38         O  0.91020468  0.65968761  0.36224028    -0.78900
C39         C  0.92913939  0.57629126  0.36117415     0.83600
C40         C  0.84419656  0.59426487  0.34840687     0.83300
O41         O  0.90282536  0.63477403  0.33644241    -0.77900
C42         C  0.85174630  0.66058305  0.40525118     0.84100
O43         O  0.91463098  0.58584553  0.34970841    -0.77900
C44         C  0.86812274  0.57424049  0.42575557     0.84200
C45         C  0.92965964  0.63426213  0.42793227     0.84600
O46         O  0.92585397  0.61372128  0.42665704    -0.80400
O47         O  0.92011569  0.43161277  0.12807598    -0.77900
C48         C  0.87276968  0.43206827  0.07165870     0.83200
O49         O  0.85450306  0.38621055  0.14337869    -0.79000
O50         O  0.86829823  0.35981024  0.07191128    -0.80500
O51         O  0.94043801  0.36490557  0.08347569    -0.80300
O52         O  0.94627270  0.40738517  0.11995922    -0.78900
Zn53       Zn  0.89181251  0.41850667  0.11623955     1.55700
O54         O  0.91690765  0.37411942  0.05713993    -0.80300
Cd55       Cd  0.92790470  0.38045557  0.11107451     1.59700
Cd56       Cd  0.87813950  0.36791871  0.12591191     1.59600
O57         O  0.93153361  0.35998358  0.13723916    -0.80300
O58         O  0.89655760  0.38830367  0.10749819    -1.90800
Cd59       Cd  0.89007554  0.38495942  0.07559391     1.59900
O60         O  0.89810493  0.35213650  0.14949764    -0.80200
O61         O  0.87569785  0.41311514  0.06321734    -0.78900
C62         C  0.85476862  0.40656384  0.14832989     0.83600
C63         C  0.94014690  0.42563185  0.12810922     0.83300
O64         O  0.87927747  0.43673539  0.09105779    -0.77900
C65         C  0.93444627  0.36467259  0.06344023     0.84100
O66         O  0.86884878  0.41953871  0.14014673    -0.77900
C67         C  0.91896801  0.35090823  0.15102619     0.84200
C68         C  0.86014350  0.34508552  0.08402099     0.84600
O69         O  0.86281316  0.34496168  0.10487271    -0.80400
C70         C  0.75050925  0.56004316  0.00568262     0.80800
N71         N  0.76827360  0.54893605  0.01352426    -0.77500
C72         C  0.76905215  0.52675748  0.01225534     0.83300
N73         N  0.75219078  0.51584291  0.00290911    -0.77400
C74         C  0.73436223  0.52641668  0.99507683     0.83400
N75         N  0.73339755  0.54870121  0.99651588    -0.79100
C76         C  0.06229594  0.50447511  0.24794112     0.80800
N77         N  0.05185072  0.49648480  0.22976485    -0.77500
C78         C  0.02964424  0.49635240  0.22885822     0.83300
N79         N  0.01805913  0.50426911  0.24604585    -0.77400
C80         C  0.02811127  0.51210677  0.26426423     0.83400
N81         N  0.05037047  0.51220194  0.26530829    -0.79100
O82         O  0.59738577  0.34365109  0.86013094    -0.77900
C83         C  0.65347595  0.34250841  0.90510385     0.83200
O84         O  0.58051983  0.38525459  0.92833655    -0.79000
O85         O  0.65124762  0.41361300  0.91672147    -0.80500
O86         O  0.63930930  0.40757457  0.84088577    -0.80300
O87         O  0.59916639  0.37022940  0.83548816    -0.78900
Zn88       Zn  0.60838311  0.35625170  0.88872193     1.55700
O89         O  0.66481011  0.40108727  0.86623868    -0.80300
Cd90       Cd  0.61063554  0.39608346  0.85472548     1.59700
Cd91       Cd  0.59754866  0.40595348  0.90649098     1.59600
O92         O  0.58706200  0.42033520  0.85360468    -0.80300
O93         O  0.61548929  0.38699235  0.88581661    -1.90800
Cd94       Cd  0.64705728  0.39041658  0.89274317     1.59900
O95         O  0.57458071  0.42400825  0.88794108    -0.80200
O96         O  0.66086628  0.36184246  0.90343307    -0.78900
C97         C  0.57647609  0.36479406  0.92631926     0.83600
C98         C  0.59454715  0.35065606  0.84070119     0.83300
O99         O  0.63389850  0.33776214  0.89970064    -0.77900
C100        C  0.65915404  0.40788854  0.84741017     0.84100
O101        O  0.58498698  0.35315884  0.91116726    -0.77900
C102        C  0.57374039  0.42853457  0.86748599     0.84200
C103        C  0.63923842  0.42763074  0.92647614     0.84600
O104        O  0.61841624  0.42801888  0.92392547    -0.80400
O105        O  0.43655628  0.12816804  0.91536612    -0.77900
C106        C  0.43512324  0.07159562  0.87002220     0.83200
O107        O  0.38753240  0.14591271  0.85403464    -0.79000
O108        O  0.36286443  0.07322845  0.86365419    -0.80500
O109        O  0.37360121  0.08257627  0.93974095    -0.80300
O110        O  0.41409672  0.12127433  0.94312324    -0.78900
Zn111      Zn  0.42144052  0.11627798  0.88829509     1.55700
O112        O  0.37784260  0.05783055  0.91298843    -0.80300
Cd113      Cd  0.38615354  0.11103106  0.92626755     1.59700
Cd114      Cd  0.37007652  0.12652005  0.87662501     1.59600
O115        O  0.36364782  0.13554332  0.93115759    -0.80300
O116        O  0.39146004  0.10781512  0.89406882    -1.90800
Cd117      Cd  0.38780738  0.07627252  0.88624645     1.59900
O118        O  0.35358429  0.14808808  0.89830925    -0.80200
O119        O  0.41620424  0.06325062  0.87260373    -0.78900
C120        C  0.40811142  0.14959100  0.85316821     0.83600
C121        C  0.43208357  0.12873216  0.93576550     0.83300
O122        O  0.43935792  0.09116093  0.87596237    -0.77900
C123        C  0.37185035  0.06308212  0.93236621     0.84100
O124        O  0.42157268  0.13979809  0.86569326    -0.77900
C125        C  0.35290893  0.14884729  0.91928709     0.84200
C126        C  0.34806493  0.08550110  0.85558358     0.84600
O127        O  0.34747437  0.10611129  0.85952422    -0.80400
C128        C  0.50988158  0.24910686  0.05717132     0.80800
N129        N  0.51614526  0.26652156  0.04487506    -0.77500
C130        C  0.51625430  0.26496635  0.02259775     0.83300
N131        N  0.50997165  0.24602289  0.01274380    -0.77400
C132        C  0.50351492  0.22864638  0.02474670     0.83400
N133        N  0.50352291  0.23018280  0.04703569    -0.79100
C134        C  0.48601102  0.25606293  0.71812958     0.80800
N135        N  0.50175790  0.26865596  0.72785323    -0.77500
C136        C  0.50562826  0.26695159  0.74973593     0.83300
N137        N  0.49361228  0.25289806  0.76174543    -0.77400
C138        C  0.47746538  0.24081604  0.75250239     0.83400
N139        N  0.47377326  0.24217809  0.73053344    -0.79100
C140        C  0.56264466  0.00178776  0.75021812     0.80800
N141        N  0.55163292  0.00920453  0.76829894    -0.77500
C142        C  0.52937068  0.00847616  0.76878522     0.83300
N143        N  0.51832722  0.00042576  0.75121946    -0.77400
C144        C  0.52896767  0.99298731  0.73321376     0.83400
N145        N  0.55121745  0.99360662  0.73269458    -0.79100
C146        C  0.93856754  0.99612466  0.25184598     0.80800
N147        N  0.95072984  0.00281630  0.23441988    -0.77500
C148        C  0.97298904  0.00213761  0.23536220     0.83300
N149        N  0.98294515  0.99473495  0.25374486    -0.77400
C150        C  0.97107530  0.98801330  0.27120401     0.83400
N151        N  0.94881884  0.98882774  0.27029966    -0.79100
C152        C  0.25303244  0.28301595  0.01029229     0.80800
N153        N  0.23765217  0.27166123  0.02180892    -0.77500
C154        C  0.23776130  0.24938652  0.02121271     0.83300
N155        N  0.25304358  0.23877363  0.00912797    -0.77400
C156        C  0.26818768  0.24975697  0.99750661     0.83400
N157        N  0.26827492  0.27197389  0.99810536    -0.79100
C158        C  0.25994110  0.93522490  0.00964524     0.80800
N159        N  0.27825603  0.94629108  0.00334664    -0.77500
C160        C  0.27858517  0.96853443  0.00408355     0.83300
N161        N  0.26059784  0.97953757  0.01095764    -0.77400
C162        C  0.24228588  0.96884952  0.01717106     0.83400
N163        N  0.24193086  0.94659798  0.01652040    -0.79100
C164        C  0.28382262  0.99402819  0.25727363     0.80800
N165        N  0.27297608  0.00516931  0.24128141    -0.77500
C166        C  0.25074428  0.00521460  0.24076652     0.83300
N167        N  0.23949337  0.99429706  0.25630713    -0.77400
C168        C  0.24995936  0.98326713  0.27240970     0.83400
N169        N  0.27224276  0.98308009  0.27289653    -0.79100
C170        C  0.00356966  0.24173164  0.93892252     0.80800
N171        N  0.00985368  0.22306832  0.94948130    -0.77500
C172        C  0.01049068  0.22272947  0.97189993     0.83300
N173        N  0.00481743  0.24096050  0.98341349    -0.77400
C174        C  0.99861691  0.25950137  0.97311558     0.83400
N175        N  0.99800338  0.25982056  0.95087699    -0.79100
C176        C  0.00849290  0.25523256  0.28763486     0.80800
N177        N  0.01988659  0.23971829  0.27606275    -0.77500
C178        C  0.01990560  0.24016323  0.25371855     0.83300
N179        N  0.00853349  0.25593703  0.24321968    -0.77400
C180        C  0.99712889  0.27131346  0.25446054     0.83400
N181        N  0.99710278  0.27100023  0.27674471    -0.79100
O182        O  0.08856442  0.06112797  0.13513679    -0.77900
C183        C  0.13690836  0.06080234  0.07858923     0.83200
O184        O  0.15322776  0.10521972  0.15175788    -0.79000
O185        O  0.14289747  0.13297721  0.08073415    -0.80500
O186        O  0.06757710  0.12382035  0.08736858    -0.80300
O187        O  0.06272793  0.08634292  0.12988144    -0.78900
Zn188      Zn  0.11611967  0.07409603  0.12210949     1.55700
O189        O  0.09442600  0.11787374  0.06328054    -0.80300
Cd190      Cd  0.08050845  0.11253525  0.11711370     1.59700
Cd191      Cd  0.13075391  0.12427994  0.13371161     1.59600
O192        O  0.07755282  0.13746879  0.14011271    -0.80300
O193        O  0.11208767  0.10456680  0.11428394    -1.90800
Cd194      Cd  0.12055932  0.10810370  0.08298869     1.59900
O195        O  0.11056741  0.14189456  0.15540946    -0.80200
O196        O  0.13560554  0.08010133  0.07099911    -0.78900
C197        C  0.15330243  0.08450273  0.15442170     0.83600
C198        C  0.06887206  0.06779213  0.13714935     0.83300
O199        O  0.12836443  0.05572672  0.09692626    -0.77900
C200        C  0.07522022  0.12470754  0.06789355     0.84100
O201        O  0.13949117  0.07213919  0.14486295    -0.77900
C202        C  0.09011644  0.14619468  0.15445668     0.84200
C203        C  0.15128812  0.14714058  0.09365543     0.84600
O204        O  0.14783067  0.14699277  0.11432995    -0.80400
O205        O  0.43310573  0.86621975  0.59003960    -0.77900
C206        C  0.43221420  0.92229538  0.63820867     0.83200
O207        O  0.39053927  0.84800588  0.65652322    -0.79000
O208        O  0.36050200  0.91732127  0.64638358    -0.80500
O209        O  0.36624821  0.91006476  0.57181945    -0.80300
O210        O  0.40761203  0.87244156  0.56461400    -0.78900
Zn211      Zn  0.42007743  0.87781741  0.61855730     1.55700
O212        O  0.37337351  0.93472635  0.59798685    -0.80300
Cd213      Cd  0.38086667  0.88162131  0.58366857     1.59700
Cd214      Cd  0.37003039  0.86457526  0.63391943     1.59600
O215        O  0.35905198  0.85622398  0.58031120    -0.80300
O216        O  0.38913060  0.88441359  0.61518225    -1.90800
Cd217      Cd  0.38474700  0.91555452  0.62353221     1.59900
O218        O  0.35376345  0.84138948  0.61324475    -0.80200
O219        O  0.41250932  0.92902852  0.63731705    -0.78900
C220        C  0.41139811  0.84591965  0.65635527     0.83600
C221        C  0.42654114  0.86557364  0.57015198     0.83300
O222        O  0.43783289  0.90380143  0.63020078    -0.77900
C223        C  0.36525506  0.92956392  0.57938570     0.84100
O224        O  0.42320726  0.85537416  0.64208742    -0.77900
C225        C  0.35072019  0.84154549  0.59242538     0.84200
C226        C  0.34655234  0.90465899  0.65507782     0.84600
O227        O  0.34676207  0.88396420  0.65154695    -0.80400
O228        O  0.08166310  0.93173178  0.37712794    -0.77900
C229        C  0.12581746  0.93194601  0.43666985     0.83200
O230        O  0.14882029  0.88997133  0.36357775    -0.79000
O231        O  0.13592673  0.85948238  0.43181355    -0.80500
O232        O  0.06072581  0.86737036  0.42257149    -0.80300
O233        O  0.05562255  0.90719166  0.38360976    -0.78900
Zn234      Zn  0.10939746  0.91950805  0.39094726     1.55700
O235        O  0.08619312  0.87330596  0.44815090    -0.80300
Cd236      Cd  0.07426388  0.88092009  0.39443797     1.59700
Cd237      Cd  0.12519753  0.87008571  0.37893203     1.59600
O238        O  0.07192933  0.85908725  0.36885181    -0.80300
O239        O  0.10568761  0.88888891  0.39827643    -1.90800
Cd240      Cd  0.11285309  0.88400905  0.42971025     1.59900
O241        O  0.10546941  0.85513741  0.35465145    -0.80200
O242        O  0.12542350  0.91229396  0.44341076    -0.78900
C243        C  0.14904726  0.91070635  0.36102481     0.83600
C244        C  0.06179925  0.92539437  0.37575495     0.83300
O245        O  0.11857933  0.93725145  0.41779152    -0.77900
C246        C  0.06739577  0.86623157  0.44237922     0.84100
O247        O  0.13442072  0.92298747  0.36952613    -0.77900
C248        C  0.08477445  0.85194148  0.35400500     0.84200
C249        C  0.14477552  0.84567701  0.41875942     0.84600
O250        O  0.14162218  0.84630588  0.39799916    -0.80400
C251        C  0.99673334  0.74506296  0.56536900     0.80800
N252        N  0.00201127  0.76395050  0.55481836    -0.77500
C253        C  0.00158534  0.76474340  0.53250360     0.83300
N254        N  0.99586212  0.74662601  0.52091147    -0.77400
C255        C  0.99050043  0.72776394  0.53103439     0.83400
N256        N  0.99097270  0.72693015  0.55338153    -0.79100
C257        C  0.24578601  0.05617902  0.50743975     0.80800
N258        N  0.26357990  0.04491861  0.51491669    -0.77500
C259        C  0.26273357  0.02277334  0.51671102     0.83300
N260        N  0.24415264  0.01206992  0.51096682    -0.77400
C261        C  0.22637673  0.02306675  0.50358848     0.83400
N262        N  0.22721895  0.04517329  0.50178154    -0.79100
C263        C  0.24843413  0.70897170  0.50049898     0.80800
N264        N  0.23348372  0.72061778  0.48858420    -0.77500
C265        C  0.23385236  0.74288914  0.48913025     0.83300
N266        N  0.24906567  0.75328116  0.50156132    -0.77400
C267        C  0.26402298  0.74204869  0.51341654     0.83400
N268        N  0.26373313  0.71978987  0.51288903    -0.79100
C269        C  0.00424922  0.75354249  0.21376587     0.80800
N270        N  0.01435884  0.77011038  0.22497821    -0.77500
C271        C  0.01086576  0.77264224  0.24684973     0.83300
N272        N  0.99712917  0.75886925  0.25719728    -0.77400
C273        C  0.98721765  0.74224749  0.24636879     0.83400
N274        N  0.99082196  0.73945038  0.22454476    -0.79100
C275        C  0.21241488  0.99813734  0.75350606     0.80800
N276        N  0.22405763  0.01049240  0.76826819    -0.77500
C277        C  0.24633337  0.00949025  0.76849626     0.83300
N278        N  0.25671298  0.99612680  0.75411105    -0.77400
C279        C  0.24552724  0.98369543  0.73946672     0.83400
N280        N  0.22324824  0.98472604  0.73904237    -0.79100
C281        C  0.75472712  0.21384864  0.99813286     0.80800
N282        N  0.74065452  0.22471734  0.98467207    -0.77500
C283        C  0.74341465  0.24647220  0.98118945     0.83300
N284        N  0.76000912  0.25721150  0.99133489    -0.77400
C285        C  0.77362728  0.24674243  0.00529802     0.83400
N286        N  0.77106202  0.22498041  0.00862028    -0.79100
C287        C  0.50241428  0.74921147  0.79183572     0.80800
N288        N  0.48947087  0.76372111  0.78081917    -0.77500
C289        C  0.49248652  0.76687709  0.75897400     0.83300
N290        N  0.50864207  0.75591424  0.74846321    -0.77400
C291        C  0.52135776  0.74123039  0.75902881     0.83400
N292        N  0.51813503  0.73771198  0.78078953    -0.79100
C293        C  0.50311824  0.74778675  0.44551612     0.80800
N294        N  0.51137967  0.73089535  0.45760384    -0.77500
C295        C  0.51322892  0.73310212  0.47981282     0.83300
N296        N  0.50671255  0.75194598  0.48961185    -0.77400
C297        C  0.49813211  0.76859355  0.47795958     0.83400
N298        N  0.49646560  0.76657472  0.45579866    -0.79100
C299        C  0.75779663  0.79316568  0.50185778     0.80800
N300        N  0.77044519  0.78240638  0.48677972    -0.77500
C301        C  0.76938625  0.76026077  0.48502921     0.83300
N302        N  0.75630271  0.74902792  0.49873186    -0.77400
C303        C  0.74402857  0.75933611  0.51407789     0.83400
N304        N  0.74441475  0.78157735  0.51542981    -0.79100
C305        C  0.44897281  0.50853980  0.75384053     0.80800
N306        N  0.46134574  0.51492345  0.73633947    -0.77500
C307        C  0.48356715  0.51525059  0.73807063     0.83300
N308        N  0.49306957  0.50906837  0.75710949    -0.77400
C309        C  0.48115584  0.50246952  0.77447135     0.83400
N310        N  0.45895403  0.50228197  0.77289258    -0.79100
C311        C  0.79566833  0.49662711  0.75319147     0.80800
N312        N  0.78369697  0.48322877  0.76633349    -0.77500
C313        C  0.76155307  0.48521783  0.76690804     0.83300
N314        N  0.75167870  0.50094739  0.75504851    -0.77400
C315        C  0.76331030  0.51462604  0.74229024     0.83400
N316        N  0.78540009  0.51219883  0.74095090    -0.79100
C317        C  0.75377605  0.44673346  0.50261361     0.80800
N318        N  0.77104334  0.45846045  0.49461942    -0.77500
C319        C  0.76973860  0.48067382  0.49359340     0.83300
N320        N  0.75127524  0.49082346  0.50062185    -0.77400
C321        C  0.73416676  0.47950940  0.50879475     0.83400
N322        N  0.73540520  0.45736245  0.50974327    -0.79100
C323        C  0.71868466  0.48894526  0.25350158     0.80800
N324        N  0.72897918  0.50439736  0.26610774    -0.77500
C325        C  0.75086616  0.50766979  0.26403069     0.83300
N326        N  0.76238213  0.49521832  0.24971890    -0.77400
C327        C  0.75268899  0.47937204  0.23750939     0.83400
N328        N  0.73061594  0.47635875  0.23914023    -0.79100
O329        O  0.10568905  0.36825039  0.66611680    -0.77900
C330        C  0.16566916  0.40815252  0.65342744     0.83200
O331        O  0.08005002  0.42246824  0.61691487    -0.79000
O332        O  0.15472462  0.41247154  0.58253433    -0.80500
O333        O  0.13982562  0.33613991  0.60212159    -0.80300
O334        O  0.10082064  0.34191053  0.64119354    -0.78900
Zn335      Zn  0.11779881  0.39368949  0.64770648     1.55700
O336        O  0.16609748  0.36080366  0.59672451    -0.80300
Cd337      Cd  0.11355981  0.35491932  0.61278831     1.59700
Cd338      Cd  0.10245939  0.40501190  0.59748944     1.59600
O339        O  0.09021832  0.35214851  0.58859573    -0.80300
O340        O  0.12158715  0.38620225  0.61685203    -1.90800
Cd341      Cd  0.15275309  0.39014652  0.60787986     1.59900
O342        O  0.08563863  0.38548380  0.57461034    -0.80200
O343        O  0.17116009  0.40274193  0.63393814    -0.78900
C344        C  0.08095805  0.42629140  0.63752843     0.83600
C345        C  0.09902662  0.34914910  0.66077927     0.83300
O346        O  0.14622325  0.40538147  0.66051331    -0.77900
C347        C  0.15895410  0.34123337  0.59565453     0.84100
O348        O  0.09521108  0.41738491  0.64984185    -0.77900
C349        C  0.08186718  0.36496891  0.57451001     0.84200
C350        C  0.14156118  0.42647789  0.57448024     0.84600
O351        O  0.12138032  0.42722128  0.57978652    -0.80400
O352        O  0.59279781  0.13358486  0.44217058    -0.77900
C353        C  0.63190325  0.07403175  0.42790759     0.83200
O354        O  0.64727276  0.16004275  0.39339980    -0.79000
O355        O  0.63561822  0.08459229  0.35876601    -0.80500
O356        O  0.55885239  0.10147381  0.37904474    -0.80300
O357        O  0.56652527  0.14043162  0.41777256    -0.78900
Zn358      Zn  0.61825184  0.12215479  0.42344210     1.55700
O359        O  0.58287146  0.07483796  0.37232720    -0.80300
Cd360      Cd  0.57884400  0.12717650  0.38913598     1.59700
Cd361      Cd  0.62963138  0.13750647  0.37348342     1.59600
O362        O  0.57624440  0.14938652  0.36433496    -0.80300
O363        O  0.61017386  0.11879712  0.39268246    -1.90800
Cd364      Cd  0.61261483  0.08753427  0.38342128     1.59900
O365        O  0.60980334  0.15428964  0.35067143    -0.80200
O366        O  0.62477358  0.06875404  0.40892129    -0.78900
C367        C  0.65062824  0.15955301  0.41413143     0.83600
C368        C  0.57390878  0.14108709  0.43733518     0.83300
O369        O  0.63043803  0.09356737  0.43535772    -0.77900
C370        C  0.56337254  0.08233019  0.37200494     0.84100
O371        O  0.64148122  0.14534392  0.42621817    -0.77900
C372        C  0.58908834  0.15745452  0.35014573     0.84200
C373        C  0.65055578  0.09683501  0.35101151     0.84600
O374        O  0.65178717  0.11718903  0.35594280    -0.80400
C375        C  0.49037662  0.25243435  0.56499254     0.80800
N376        N  0.49783551  0.23350739  0.55563653    -0.77500
C377        C  0.49987539  0.23195898  0.53347374     0.83300
N378        N  0.49437260  0.24920445  0.52086890    -0.77400
C379        C  0.48713169  0.26816834  0.52991847     0.83400
N380        N  0.48514896  0.26981721  0.55209005    -0.79100
O381        O  0.40356798  0.37021923  0.33793944    -0.77900
C382        C  0.34406326  0.40672623  0.35014890     0.83200
O383        O  0.42974465  0.42192050  0.38960651    -0.79000
O384        O  0.35280253  0.40994002  0.42075072    -0.80500
O385        O  0.37204617  0.33486981  0.40108865    -0.80300
O386        O  0.40798680  0.34224863  0.36064622    -0.78900
Zn387      Zn  0.39222997  0.39485802  0.35728526     1.55700
O388        O  0.34368754  0.35767396  0.40405327    -0.80300
Cd389      Cd  0.39737733  0.35462032  0.39035672     1.59700
Cd390      Cd  0.40628557  0.40442657  0.40793547     1.59600
O391        O  0.42180603  0.35184470  0.41354910    -0.80300
O392        O  0.38814066  0.38569880  0.38740510    -1.90800
Cd393      Cd  0.35644941  0.38790361  0.39510980     1.59900
O394        O  0.42254772  0.38430300  0.43067925    -0.80200
O395        O  0.33819289  0.40020545  0.36904175    -0.78900
C396        C  0.42959090  0.42613410  0.36908253     0.83600
C397        C  0.40919959  0.35054338  0.34158768     0.83300
O398        O  0.36396995  0.40584863  0.34396126    -0.77900
C399        C  0.35205704  0.33862700  0.40567624     0.84100
O400        O  0.41522839  0.41813762  0.35616083    -0.77900
C401        C  0.42816297  0.36419105  0.42923738     0.84200
C402        C  0.36499533  0.42455337  0.42946992     0.84600
O403        O  0.38542742  0.42601604  0.42516943    -0.80400
C404        C  0.56496019  0.48828807  0.25479312     0.80800
N405        N  0.55276807  0.48247630  0.27267382    -0.77500
C406        C  0.53045634  0.48325342  0.27156644     0.83300
N407        N  0.52074955  0.48988188  0.25276446    -0.77400
C408        C  0.53248984  0.49594077  0.23510468     0.83400
N409        N  0.55469481  0.49512296  0.23609533    -0.79100
C410        C  0.50518651  0.74508938  0.94536592     0.80800
N411        N  0.51038352  0.76371180  0.95672722    -0.77500
C412        C  0.50969244  0.76398289  0.97904688     0.83300
N413        N  0.50384122  0.74563170  0.98981374    -0.77400
C414        C  0.49865736  0.72704120  0.97873880     0.83400
N415        N  0.49926687  0.72677394  0.95645255    -0.79100
O416        O  0.38415693  0.55574427  0.09555855    -0.77900
C417        C  0.44116625  0.56662524  0.13658463     0.83200
O418        O  0.35445743  0.60442973  0.14904284    -0.79000
O419        O  0.43100066  0.63363642  0.14377468    -0.80500
O420        O  0.41636048  0.61969413  0.06517487    -0.80300
O421        O  0.37821864  0.58014743  0.06924475    -0.78900
Zn422      Zn  0.39365163  0.57373136  0.12201143     1.55700
O423        O  0.44228661  0.62508085  0.09045310    -0.80300
Cd424      Cd  0.38978552  0.60875818  0.08299659     1.59700
Cd425      Cd  0.37767637  0.62405709  0.13294993     1.59600
O426        O  0.36609116  0.63270305  0.07981551    -0.80300
O427        O  0.39719688  0.60433217  0.11442084    -1.90800
Cd428      Cd  0.42870644  0.61158086  0.11846425     1.59900
O429        O  0.36059787  0.64691583  0.11318472    -0.80200
O430        O  0.44716894  0.58498920  0.12893940    -0.78900
C431        C  0.35405699  0.58367603  0.15142862     0.83600
C432        C  0.37745357  0.56066268  0.07641190     0.83300
O433        O  0.42121861  0.56050909  0.13571123    -0.77900
C434        C  0.43528614  0.62646093  0.07079051     0.84100
O435        O  0.36854751  0.57123548  0.14296738    -0.77900
C436        C  0.35714366  0.64681418  0.09246023     0.84200
C437        C  0.41807528  0.64268828  0.15746610     0.84600
O438        O  0.39726389  0.64054890  0.15630666    -0.80400
C439        C  0.25092398  0.55525094  0.50024765     0.80800
N440        N  0.26998088  0.54420408  0.49598157    -0.77500
C441        C  0.27014311  0.52195003  0.49571726     0.83300
N442        N  0.25142134  0.51104321  0.49968729    -0.77400
C443        C  0.23241028  0.52157148  0.50386669     0.83400
N444        N  0.23209557  0.54384101  0.50418138    -0.79100
O445        O  0.56000321  0.90642092  0.13365592    -0.77900
C446        C  0.57162086  0.86719777  0.07240064     0.83200
O447        O  0.61020551  0.85268904  0.15748388    -0.79000
O448        O  0.64085393  0.86276380  0.08139360    -0.80500
O449        O  0.62203527  0.94008453  0.09733471    -0.80300
O450        O  0.58424266  0.93325888  0.13841352    -0.78900
Zn451      Zn  0.57805931  0.88101635  0.12065180     1.55700
O452        O  0.62856623  0.91484713  0.07160507    -0.80300
Cd453      Cd  0.61207598  0.92093767  0.12368006     1.59700
Cd454      Cd  0.62875156  0.87073029  0.13486006     1.59600
O455        O  0.63701611  0.92403280  0.14586423    -0.80300
O456        O  0.60852602  0.88934277  0.11623542    -1.90800
Cd457      Cd  0.61661308  0.88603462  0.08474147     1.59900
O458        O  0.65121508  0.89091976  0.15179463    -0.80200
O459        O  0.59031562  0.87436268  0.06664871    -0.78900
C460        C  0.58966758  0.84869794  0.15746725     0.83600
C461        C  0.56511886  0.92540019  0.14092521     0.83300
O462        O  0.56489934  0.86867335  0.09220003    -0.77900
C463        C  0.62936877  0.93456999  0.07852092     0.84100
O464        O  0.57671772  0.85745993  0.14366301    -0.77900
C465        C  0.65126334  0.91166622  0.15460388     0.84200
C466        C  0.64996676  0.84897407  0.09403409     0.84600
O467        O  0.64634605  0.84877788  0.11468130    -0.80400
C468        C  0.75337823  0.71375662  0.00929098     0.80800
N469        N  0.76898211  0.72399211  0.99707017    -0.77500
C470        C  0.77024888  0.74621116  0.99717033     0.83300
N471        N  0.75605162  0.75799111  0.00948019    -0.77400
C472        C  0.74044236  0.74817358  0.02160119     0.83400
N473        N  0.73901397  0.72594182  0.02150376    -0.79100
O474        O  0.91045265  0.12819399  0.55778253    -0.77900
C475        C  0.87199008  0.06921919  0.56689083     0.83200
O476        O  0.85369943  0.15253611  0.60638583    -0.79000
O477        O  0.86197648  0.07657016  0.63481028    -0.80500
O478        O  0.94063504  0.09504635  0.62439268    -0.80300
O479        O  0.93664199  0.13312858  0.58274849    -0.78900
Zn480      Zn  0.88437223  0.11701008  0.57515362     1.55700
O481        O  0.91603569  0.06848266  0.62860347    -0.80300
Cd482      Cd  0.92232515  0.12052040  0.61086169     1.59700
Cd483      Cd  0.87096209  0.13001652  0.62553373     1.59600
O484        O  0.92306081  0.14527310  0.63374749    -0.80300
O485        O  0.89113949  0.11218856  0.60594957    -1.90800
Cd486      Cd  0.88791280  0.08061652  0.61332689     1.59900
O487        O  0.88950455  0.14838012  0.64797730    -0.80200
O488        O  0.87932811  0.06277478  0.58537493    -0.78900
C489        C  0.85245485  0.15447314  0.58557431     0.83600
C490        C  0.92940873  0.13505331  0.56322869     0.83300
O491        O  0.87234319  0.08928565  0.56136696    -0.77900
C492        C  0.93524828  0.07621252  0.63145337     0.84100
O493        O  0.86242850  0.14146841  0.57256673    -0.77900
C494        C  0.90972589  0.15358603  0.64752473     0.84200
C495        C  0.84811115  0.08902275  0.64431193     0.84600
O496        O  0.84878551  0.10982350  0.64242319    -0.80400
C497        C  0.71627856  0.00258094  0.74944480     0.80800
N498        N  0.72687452  0.01412549  0.73360681    -0.77500
C499        C  0.74912433  0.01392178  0.73265474     0.83300
N500        N  0.76059216  0.00207668  0.74742413    -0.77400
C501        C  0.75033272  0.99052109  0.76323685     0.83400
N502        N  0.72808687  0.99075551  0.76425456    -0.79100
O503        O  0.87092408  0.93907231  0.90832239    -0.77900
C504        C  0.93103862  0.92639959  0.86946765     0.83200
O505        O  0.84409194  0.88926929  0.85612042    -0.79000
O506        O  0.91963844  0.85757398  0.86369607    -0.80500
O507        O  0.90637590  0.87683041  0.94199061    -0.80300
O508        O  0.86548939  0.91540643  0.93534019    -0.78900
Zn509      Zn  0.88309586  0.92021339  0.88333816     1.55700
O510        O  0.93094226  0.86833859  0.91626574    -0.80300
Cd511      Cd  0.87981992  0.88714529  0.92333782     1.59700
Cd512      Cd  0.86662097  0.86992504  0.87380629     1.59600
O513        O  0.85778541  0.86246199  0.92747534    -0.80300
O514        O  0.88672029  0.88986764  0.89162685    -1.90800
Cd515      Cd  0.91807207  0.88153936  0.88764194     1.59900
O516        O  0.84990962  0.84790660  0.89474083    -0.80200
O517        O  0.93703652  0.90769600  0.87641541    -0.78900
C518        C  0.84530503  0.90965042  0.85172889     0.83600
C519        C  0.86346685  0.93443238  0.92724775     0.83300
O520        O  0.91122312  0.93284872  0.87106274    -0.77900
C521        C  0.92446002  0.86815588  0.93614465     0.84100
O522        O  0.86007878  0.92185804  0.86000367    -0.77900
C523        C  0.84824874  0.84809475  0.91567923     0.84200
C524        C  0.90628190  0.84821200  0.85056428     0.84600
O525        O  0.88563887  0.85169299  0.85128126    -0.80400
O526        O  0.09602569  0.62228308  0.94362515    -0.77900
C527        C  0.13892706  0.56436998  0.93322440     0.83200
O528        O  0.14895556  0.64987912  0.89391587    -0.79000
O529        O  0.14375513  0.57263230  0.86507975    -0.80500
O530        O  0.06552930  0.58603298  0.88024830    -0.80300
O531        O  0.07006595  0.62703080  0.91834412    -0.78900
Zn532      Zn  0.12229389  0.61127889  0.92577499     1.55700
O533        O  0.09142730  0.56076443  0.87520373    -0.80300
Cd534      Cd  0.08323580  0.61322590  0.89047467     1.59700
Cd535      Cd  0.13279057  0.62588385  0.87470809     1.59600
O536        O  0.07929311  0.63554964  0.86574481    -0.80300
O537        O  0.11480524  0.60668373  0.89499042    -1.90800
Cd538      Cd  0.11943124  0.57517734  0.88807244     1.59900
O539        O  0.11227447  0.64171458  0.85145715    -0.80200
O540        O  0.13128059  0.55782800  0.91482665    -0.78900
C541        C  0.15159995  0.65055364  0.91474389     0.83600
C542        C  0.07717204  0.62925600  0.93789350     0.83300
O543        O  0.13709762  0.58430043  0.93944368    -0.77900
C544        C  0.07161972  0.56718399  0.87360404     0.84100
O545        O  0.14318272  0.63633552  0.92728839    -0.77900
C546        C  0.09147656  0.64438622  0.85144177     0.84200
C547        C  0.15719912  0.58545306  0.85578609     0.84600
O548        O  0.15618704  0.60623744  0.85823077    -0.80400
C549        C  0.99665482  0.74341414  0.71985569     0.80800
N550        N  0.98351936  0.75755541  0.73143553    -0.77500
C551        C  0.98290905  0.75663512  0.75374993     0.83300
N552        N  0.99535464  0.74167695  0.76418776    -0.77400
C553        C  0.00849149  0.72761952  0.75317159     0.83400
N554        N  0.00920798  0.72846299  0.73084083    -0.79100
C555        C  0.94859725  0.49571116  0.75054301     0.80800
N556        N  0.96116170  0.49002095  0.73283738    -0.77500
C557        C  0.98339570  0.49047645  0.73456560     0.83300
N558        N  0.99272327  0.49659512  0.75383848    -0.77400
C559        C  0.98049607  0.50252545  0.77131607     0.83400
N560        N  0.95835431  0.50201418  0.76971821    -0.79100
C561        C  0.29553774  0.50474461  0.75333845     0.80800
N562        N  0.28385014  0.51638200  0.76858942    -0.77500
C563        C  0.26187898  0.51347108  0.77027814     0.83300
N564        N  0.25182243  0.49884996  0.75698725    -0.77400
C565        C  0.26295188  0.48747567  0.74152676     0.83400
N566        N  0.28497378  0.49042894  0.73956082    -0.79100
C567        C  0.75224836  0.94605175  0.49512210     0.80800
N568        N  0.73373567  0.95679218  0.48872655    -0.77500
C569        C  0.73354215  0.97904046  0.48782938     0.83300
N570        N  0.75182937  0.99038366  0.49334653    -0.77400
C571        C  0.77035775  0.97984380  0.49954745     0.83400
N572        N  0.77049750  0.95767073  0.50047807    -0.79100
C573        C  0.00312258  0.25694116  0.44133258     0.80800
N574        N  0.99565560  0.23896053  0.45210558    -0.77500
C575        C  0.99596085  0.23846422  0.47441520     0.83300
N576        N  0.00374537  0.25593615  0.48574647    -0.77400
C577        C  0.01117555  0.27390334  0.47531639     0.83400
N578        N  0.01088944  0.27444027  0.45301856    -0.79100
C579        C  0.99484454  0.25201545  0.78554811     0.80800
N580        N  0.98153042  0.23912229  0.77284555    -0.77500
C581        C  0.98340927  0.23948948  0.75060967     0.83300
N582        N  0.99880038  0.25223942  0.74134186    -0.77400
C583        C  0.01196212  0.26525658  0.75355097     0.83400
N584        N  0.00992181  0.26530410  0.77580537    -0.79100
C585        C  0.50593399  0.74490156  0.29154096     0.80800
N586        N  0.49423766  0.72896731  0.28102799    -0.77500
C587        C  0.49377214  0.72807537  0.25877058     0.83300
N588        N  0.50489876  0.74310058  0.24711439    -0.77400
C589        C  0.51655544  0.75910041  0.25719436     0.83400
N590        N  0.51716883  0.76001261  0.27955052    -0.79100
C591        C  0.78514674  0.00562315  0.25104398     0.80800
N592        N  0.77396159  0.01855265  0.26571874    -0.77500
C593        C  0.75164983  0.01893385  0.26532219     0.83300
N594        N  0.74087517  0.00651664  0.25040223    -0.77400
C595        C  0.75162467  0.99367711  0.23584272     0.83400
N596        N  0.77386190  0.99315152  0.23614965    -0.79100
C597        C  0.25452338  0.78171198  0.00628226     0.80800
N598        N  0.26892181  0.77010426  0.01889394    -0.77500
C599        C  0.26805423  0.74783172  0.01898490     0.83300
N600        N  0.25291765  0.73743578  0.00646592    -0.77400
C601        C  0.23854580  0.74867354  0.99390445     0.83400
N602        N  0.23934170  0.77088416  0.99379340    -0.79100
C603        C  0.75282356  0.29327418  0.50394639     0.80800
N604        N  0.76840059  0.28243981  0.51569963    -0.77500
C605        C  0.76874240  0.26021910  0.51574508     0.83300
N606        N  0.75369174  0.24895106  0.50389632    -0.77400
C607        C  0.73821155  0.25940744  0.49199252     0.83400
N608        N  0.73772290  0.28168723  0.49201728    -0.79100
C609        C  0.21536555  0.49844015  0.24641086     0.80800
N610        N  0.22716388  0.50935877  0.23099851    -0.77500
C611        C  0.24912310  0.50625550  0.22951792     0.83300
N612        N  0.25906779  0.49202860  0.24317268    -0.77400
C613        C  0.24772524  0.48139608  0.25882003     0.83400
N614        N  0.22574903  0.48470136  0.26061692    -0.79100
C615        C  0.25373661  0.43644137  0.01058178     0.80800
N616        N  0.27234739  0.44673028  0.01733101    -0.77500
C617        C  0.27375194  0.46886635  0.01674090     0.83300
N618        N  0.25651232  0.48069177  0.00941062    -0.77400
C619        C  0.23777863  0.47078738  0.00271625     0.83400
N620        N  0.23641247  0.44853313  0.00320266    -0.79100
C621        C  0.43714483  0.99919699  0.25888754     0.80800
N622        N  0.44895960  0.99099316  0.24175227    -0.77500
C623        C  0.47119492  0.99146612  0.24229988     0.83300
N624        N  0.48151301  0.00019545  0.26002475    -0.77400
C625        C  0.46996635  0.00845752  0.27721610     0.83400
N626        N  0.44770522  0.00792565  0.27665055    -0.79100
C627        C  0.50636813  0.25417465  0.21074420     0.80800
N628        N  0.49162241  0.26801689  0.22041482    -0.77500
C629        C  0.48757529  0.26645479  0.24230117     0.83300
N630        N  0.49837031  0.25135905  0.25427420    -0.77400
C631        C  0.51356343  0.23809664  0.24507548     0.83400
N632        N  0.51744913  0.23934475  0.22319397    -0.79100
C633        C  0.25087045  0.20878975  0.49680056     0.80800
N634        N  0.26441963  0.21861011  0.48205923    -0.77500
C635        C  0.26536890  0.24081308  0.48117214     0.83300
N636        N  0.25344778  0.25292699  0.49547847    -0.77400
C637        C  0.24037713  0.24345380  0.51052746     0.83400
N638        N  0.23874694  0.22129881  0.51093532    -0.79100
C639        C  0.00163214  0.75111298  0.06071976     0.80800
N640        N  0.99353834  0.76833969  0.04921025    -0.77500
C641        C  0.99353131  0.76777302  0.02691554     0.83300
N642        N  0.00161301  0.74995139  0.01625928    -0.77400
C643        C  0.00969233  0.73274012  0.02757347     0.83400
N644        N  0.00968134  0.73333527  0.04984992    -0.79100
C645        C  0.74594923  0.06126890  0.00323725     0.80800
N646        N  0.76309712  0.04947333  0.99503915    -0.77500
C647        C  0.76240789  0.02725567  0.99499797     0.83300
N648        N  0.74461321  0.01702314  0.00322897    -0.77400
C649        C  0.72754787  0.02849603  0.01156934     0.83400
N650        N  0.72816015  0.05072338  0.01152848    -0.79100
C651        C  0.05855120  0.00421997  0.75471891     0.80800
N652        N  0.04733730  0.99627658  0.77230091    -0.77500
C653        C  0.02504885  0.99560553  0.77199732     0.83300
N654        N  0.01412483  0.00292983  0.75410935    -0.77400
C655        C  0.02498108  0.01089527  0.73651498     0.83400
N656        N  0.04726976  0.01150440  0.73683823    -0.79100
C657        C  0.17986977  0.68434676  0.95154660     0.30400
C658        C  0.18889276  0.68952581  0.97199908    -0.36000
C659        C  0.20063708  0.70903506  0.97329819     0.16400
C660        C  0.20321406  0.72293894  0.95580488     0.22200
C661        C  0.19396717  0.71775398  0.93511452    -0.34100
C662        C  0.18236212  0.69781878  0.93369292     0.16300
O663        O  0.16899862  0.66641032  0.94689344    -0.26100
C664        C  0.16440116  0.66795315  0.92567000     0.06100
C665        C  0.17226726  0.68723395  0.91643812    -0.31000
O666        O  0.21609970  0.73974533  0.96077550    -0.22800
C667        C  0.22177270  0.73621946  0.98163730    -0.02800
C668        C  0.21258320  0.71738695  0.99010415    -0.17200
H669        H  0.18738534  0.67869644  0.98585890     0.20800
H670        H  0.19620919  0.72814356  0.92102607     0.19100
H671        H  0.17075587  0.69261447  0.89964009     0.19100
H672        H  0.21516270  0.71034314  0.00613653     0.14900
C673        C  0.19296602  0.49556595  0.97590657     0.30400
C674        C  0.17584597  0.49740524  0.96052516    -0.36000
C675        C  0.16713037  0.51851844  0.95755097     0.16400
C676        C  0.17454030  0.53656648  0.96907269     0.22200
C677        C  0.19161616  0.53473041  0.98443746    -0.34100
C678        C  0.20047863  0.51370844  0.98720631     0.16300
O679        O  0.20442091  0.47770254  0.98034624    -0.26100
C680        C  0.21957733  0.48457792  0.99457649     0.06100
C681        C  0.21782840  0.50682815  0.99938612    -0.31000
O682        O  0.16494212  0.55490949  0.96283475    -0.22800
C683        C  0.15118486  0.54862362  0.94700122    -0.02800
C684        C  0.15189273  0.52612578  0.94305667    -0.17200
H685        H  0.17019683  0.48350357  0.95103148     0.20800
H686        H  0.19804504  0.54882923  0.99309505     0.19100
H687        H  0.22831811  0.51666135  0.00983278     0.19100
H688        H  0.14314319  0.51687333  0.93064294     0.14900
C689        C  0.05466977  0.65948107  0.98171187     0.30400
C690        C  0.05388848  0.66912802  0.00274963    -0.36000
C691        C  0.03842936  0.68597115  0.00567507     0.16400
C692        C  0.02494206  0.69296415  0.98894261     0.22200
C693        C  0.02540363  0.68306712  0.96815551    -0.34100
C694        C  0.04058277  0.66612311  0.96534289     0.16300
O695        O  0.06899460  0.64477976  0.97466437    -0.26100
C696        C  0.06368715  0.64178402  0.95362302     0.06100
C697        C  0.04603669  0.65455020  0.94706373    -0.31000
O698        O  0.01294598  0.70997943  0.99460708    -0.22800
C699        C  0.01847223  0.71384164  0.01537807    -0.02800
C700        C  0.03417003  0.69933000  0.02324769    -0.17200
H701        H  0.06500049  0.66433343  0.01569579     0.20800
H702        H  0.01509606  0.68865757  0.95487004     0.19100
H703        H  0.03921601  0.65620419  0.93075438     0.19100
H704        H  0.04199499  0.69930373  0.03919303     0.14900
C705        C  0.20382670  0.56875375  0.82582297     0.30400
C706        C  0.22494316  0.56991324  0.81653416    -0.36000
C707        C  0.23254020  0.55078276  0.80587395     0.16400
C708        C  0.22001658  0.53206842  0.80440929     0.22200
C709        C  0.19924933  0.53082808  0.81383142    -0.34100
C710        C  0.19181786  0.54971474  0.82446767     0.16300
O711        O  0.19320882  0.58447805  0.83654174    -0.26100
C712        C  0.17429515  0.57512868  0.84207465     0.06100
C713        C  0.17269301  0.55355350  0.83496271    -0.31000
O714        O  0.22926329  0.51661447  0.79257165    -0.22800
C715        C  0.24822297  0.52514909  0.78642334    -0.02800
C716        C  0.25134549  0.54640233  0.79433262    -0.17200
H717        H  0.23462377  0.58469256  0.81733655     0.20800
H718        H  0.18937704  0.51618934  0.81262483     0.19100
H719        H  0.15935070  0.54221081  0.83739503     0.19100
H720        H  0.26475482  0.55738789  0.79093995     0.14900
C721        C  0.02675348  0.54372192  0.84624926     0.30400
C722        C  0.00558209  0.54338645  0.83710014    -0.36000
C723        C  0.00196618  0.52793420  0.82026722     0.16400
C724        C  0.01818561  0.51395743  0.81295031     0.22200
C725        C  0.03907207  0.51388384  0.82246378    -0.34100
C726        C  0.04262464  0.52918405  0.83929172     0.16300
O727        O  0.03453625  0.55841825  0.86022330    -0.26100
C728        C  0.05556469  0.55300596  0.86240659     0.06100
C729        C  0.06141140  0.53481127  0.84990385    -0.31000
O730        O  0.01228967  0.50272037  0.79543159    -0.22800
C731        C  0.99188138  0.50919529  0.79154906    -0.02800
C732        C  0.98443778  0.52475741  0.80659509    -0.17200
H733        H  0.99317844  0.55510069  0.84195050     0.20800
H734        H  0.05202353  0.50340723  0.81635028     0.19100
H735        H  0.07756448  0.52789965  0.84755390     0.19100
H736        H  0.96909576  0.53361501  0.80642191     0.14900
C737        C  0.05428189  0.67467235  0.82004274     0.30400
C738        C  0.03399735  0.68444597  0.81589736    -0.36000
C739        C  0.03145340  0.69406621  0.79532344     0.16400
C740        C  0.04763750  0.69416300  0.77959976     0.22200
C741        C  0.06819121  0.68437452  0.78384702    -0.34100
C742        C  0.07084559  0.67474740  0.80470674     0.16300
O743        O  0.05972541  0.66449098  0.83817327    -0.26100
C744        C  0.08021827  0.65794106  0.83484674     0.06100
C745        C  0.08813585  0.66394446  0.81426403    -0.31000
O746        O  0.04161840  0.70501845  0.76174751    -0.22800
C747        C  0.02134644  0.71187588  0.76635042    -0.02800
C748        C  0.01436410  0.70544369  0.78700213    -0.17200
H749        H  0.02106606  0.68464601  0.82799732     0.20800
H750        H  0.08122636  0.68445113  0.77187355     0.19100
H751        H  0.10396120  0.66032144  0.80717884     0.19100
H752        H  0.99910477  0.70940608  0.79511700     0.14900
C753        C  0.98451552  0.97978942  0.80934854     0.30400
C754        C  0.96300257  0.97823375  0.81711701    -0.36000
C755        C  0.95953774  0.96362103  0.83432556     0.16400
C756        C  0.97603519  0.95108327  0.84323326     0.22200
C757        C  0.99780095  0.95306952  0.83580051    -0.34100
C758        C  0.00133315  0.96792160  0.81859315     0.16300
O759        O  0.99086152  0.99122673  0.79229896    -0.26100
C760        C  0.01216192  0.98703039  0.79056163     0.06100
C761        C  0.01968522  0.97271610  0.80662768    -0.31000
O762        O  0.96850784  0.93675774  0.85755763    -0.22800
C763        C  0.94696975  0.94049391  0.85800926    -0.02800
C764        C  0.94061017  0.95718328  0.84401161    -0.17200
H765        H  0.94968517  0.98721087  0.80966266     0.20800
H766        H  0.01088801  0.94312354  0.84236272     0.19100
H767        H  0.03596381  0.96598176  0.80848425     0.19100
H768        H  0.92417167  0.96267941  0.84032027     0.14900
C769        C  0.80716841  0.00332507  0.96726754     0.30400
C770        C  0.82450402  0.00167741  0.95211724    -0.36000
C771        C  0.83371102  0.98070300  0.94925457     0.16400
C772        C  0.82650283  0.96277369  0.96075448     0.22200
C773        C  0.80921131  0.96438565  0.97568861    -0.34100
C774        C  0.79991608  0.98514822  0.97832390     0.16300
O775        O  0.79544367  0.02099975  0.97197532    -0.26100
C776        C  0.78046888  0.01383012  0.98608225     0.06100
C777        C  0.78254777  0.99168173  0.99053110    -0.31000
O778        O  0.83671298  0.94461831  0.95514326    -0.22800
C779        C  0.85065399  0.95075297  0.93968114    -0.02800
C780        C  0.84950154  0.97306235  0.93523893    -0.17200
H781        H  0.83006270  0.01560773  0.94285812     0.20800
H782        H  0.80306766  0.95027482  0.98429190     0.19100
H783        H  0.77238182  0.98170580  0.00095310     0.19100
H784        H  0.85843833  0.98212274  0.92301409     0.14900
C785        C  0.96036248  0.83369947  0.96446867     0.30400
C786        C  0.97669526  0.81768905  0.96609546    -0.36000
C787        C  0.97844836  0.80723632  0.98637587     0.16400
C788        C  0.96530117  0.81232055  0.00408035     0.22200
C789        C  0.94891761  0.82843856  0.00246877    -0.34100
C790        C  0.94697662  0.83876562  0.98200240     0.16300
O791        O  0.95486173  0.84418332  0.94647552    -0.26100
C792        C  0.93769683  0.85622948  0.95241185     0.06100
C793        C  0.93204528  0.85353738  0.97438475    -0.31000
O794        O  0.96923309  0.79964795  0.02113640    -0.22800
C795        C  0.98493573  0.78619297  0.01406508    -0.02800
C796        C  0.99126377  0.79021387  0.99259345    -0.17200
H797        H  0.98680108  0.81313067  0.95225502     0.20800
H798        H  0.93800776  0.83213741  0.01593928     0.19100
H799        H  0.91825737  0.86050230  0.98309642     0.19100
H800        H  0.00318496  0.78143872  0.98279753     0.14900
C801        C  0.93919130  0.81172326  0.82102973     0.30400
C802        C  0.95779542  0.79883399  0.81783212    -0.36000
C803        C  0.96016767  0.78942687  0.79702796     0.16400
C804        C  0.94542020  0.79240858  0.78015669     0.22200
C805        C  0.92639752  0.80520733  0.78349401    -0.34100
C806        C  0.92387399  0.81461128  0.80462875     0.16300
O807        O  0.93457003  0.82269290  0.83905924    -0.26100
C808        C  0.91579819  0.83266793  0.83460940     0.06100
C809        C  0.90816118  0.82817074  0.81342044    -0.31000
O810        O  0.95141466  0.78187020  0.76193734    -0.22800
C811        C  0.97013642  0.77204200  0.76757819    -0.02800
C812        C  0.97614689  0.77625425  0.78918976    -0.17200
H813        H  0.96978196  0.79646373  0.83069889     0.20800
H814        H  0.91451768  0.80774640  0.77057306     0.19100
H815        H  0.89377895  0.83470116  0.80541067     0.19100
H816        H  0.99029147  0.77021403  0.79800013     0.14900
C817        C  0.77585645  0.95278077  0.79855454     0.30400
C818        C  0.77895663  0.93305545  0.81004306    -0.36000
C819        C  0.79979594  0.92995794  0.81959209     0.16400
C820        C  0.81613608  0.94541392  0.81810740     0.22200
C821        C  0.81310996  0.96487802  0.80663587    -0.34100
C822        C  0.79257941  0.96779813  0.79695912     0.16300
O823        O  0.75811137  0.95897488  0.78764742    -0.26100
C824        C  0.76383571  0.97807288  0.77891219     0.06100
C825        C  0.78506706  0.98424435  0.78422441    -0.31000
O826        O  0.83403338  0.93984325  0.82866156    -0.22800
C827        C  0.82950484  0.92037003  0.83697428    -0.02800
C828        C  0.80839878  0.91323090  0.83180341    -0.17200
H829        H  0.76614512  0.92094872  0.81129131     0.20800
H830        H  0.82597999  0.97691504  0.80525656     0.19100
H831        H  0.79389409  0.99859331  0.77895647     0.19100
H832        H  0.80036314  0.89839239  0.83695041     0.14900
C833        C  0.92539605  0.18623889  0.69259637     0.30400
C834        C  0.92588994  0.19356995  0.71460788    -0.36000
C835        C  0.94411008  0.20637485  0.72075531     0.16400
C836        C  0.96031462  0.21175491  0.70603560     0.22200
C837        C  0.95978277  0.20459149  0.68423314    -0.34100
C838        C  0.94192777  0.19166328  0.67826527     0.16300
O839        O  0.91094571  0.17279579  0.68350533    -0.26100
C840        C  0.91862391  0.16960839  0.66325978     0.06100
C841        C  0.93775136  0.18104230  0.65915885    -0.31000
O842        O  0.97587369  0.22365907  0.71488316    -0.22800
C843        C  0.96995018  0.22600030  0.73571373    -0.02800
C844        C  0.95025701  0.21554468  0.74047207    -0.17200
H845        H  0.91332075  0.18913541  0.72621142     0.20800
H846        H  0.97273130  0.20842206  0.67281478     0.19100
H847        H  0.94768559  0.18076290  0.64447317     0.19100
H848        H  0.94166867  0.21504050  0.75596058     0.14900
C849        C  0.96485658  0.17034948  0.53554546     0.30400
C850        C  0.98062496  0.18692383  0.53429812    -0.36000
C851        C  0.98214150  0.19771355  0.51416010     0.16400
C852        C  0.96929507  0.19245716  0.49623811     0.22200
C853        C  0.95346296  0.17580493  0.49749009    -0.34100
C854        C  0.95173665  0.16514135  0.51780588     0.16300
O855        O  0.95953002  0.15950802  0.55336648    -0.26100
C856        C  0.94268926  0.14713839  0.54713438     0.06100
C857        C  0.93713389  0.14995102  0.52511983    -0.31000
O858        O  0.97285574  0.20550570  0.47937843    -0.22800
C859        C  0.98805664  0.21936453  0.48676213    -0.02800
C860        C  0.99437022  0.21523312  0.50828255    -0.17200
H861        H  0.99046055  0.19164846  0.54832429     0.20800
H862        H  0.94273429  0.17196832  0.48386457     0.19100
H863        H  0.92354037  0.14282485  0.51619803     0.19100
H864        H  0.00586175  0.22429272  0.51836613     0.14900
C865        C  0.00235441  0.03747311  0.69048994     0.30400
C866        C  0.00084882  0.05324153  0.67385009    -0.36000
C867        C  0.98054396  0.05480090  0.66297053     0.16400
C868        C  0.96301719  0.04154995  0.66792182     0.22200
C869        C  0.96452715  0.02580604  0.68448029    -0.34100
C870        C  0.98466274  0.02448443  0.69553899     0.16300
O871        O  0.01929232  0.03405108  0.70366125    -0.26100
C872        C  0.01223101  0.01880041  0.71744457     0.06100
C873        C  0.99080443  0.01231536  0.71310313    -0.31000
O874        O  0.94519532  0.04663511  0.65675057    -0.22800
C875        C  0.95123059  0.06346984  0.64445806    -0.02800
C876        C  0.97310073  0.06922834  0.64764430    -0.17200
H877        H  0.01432795  0.06405529  0.67014922     0.20800
H878        H  0.95067319  0.01579777  0.68898674     0.19100
H879        H  0.98096612  0.00068763  0.72201811     0.19100
H880        H  0.98190846  0.08274646  0.64050573     0.14900
C881        C  0.80155868  0.23036826  0.55206011     0.30400
C882        C  0.80749765  0.22110111  0.57231532    -0.36000
C883        C  0.82077606  0.20227099  0.57124867     0.16400
C884        C  0.82784392  0.19340484  0.55160691     0.22200
C885        C  0.82216208  0.20275496  0.53150364    -0.34100
C886        C  0.80879707  0.22132700  0.53255803     0.16300
O887        O  0.78752060  0.24657859  0.54891913    -0.26100
C888        C  0.78594518  0.24785639  0.52713765     0.06100
C889        C  0.79878650  0.23253003  0.51623690    -0.31000
O890        O  0.83949357  0.17548499  0.55417560    -0.22800
C891        C  0.83997639  0.17260782  0.57576794    -0.02800
C892        C  0.82863753  0.18882833  0.58729357    -0.17200
H893        H  0.80154249  0.22762219  0.58775601     0.20800
H894        H  0.82721708  0.19557684  0.51602011     0.19100
H895        H  0.79940787  0.22914452  0.49878398     0.19100
H896        H  0.82651434  0.19044948  0.60485527     0.14900
C897        C  0.83880573  0.04180136  0.52890125     0.30400
C898        C  0.82155447  0.04060599  0.51374116    -0.36000
C899        C  0.81146874  0.02016057  0.51139658     0.16400
C900        C  0.81820751  0.00191630  0.52274717     0.22200
C901        C  0.83572943  0.00303284  0.53769175    -0.34100
C902        C  0.84550825  0.02365508  0.54043803     0.16300
O903        O  0.84839438  0.05989792  0.53576125    -0.26100
C904        C  0.86135474  0.05339112  0.55200609     0.06100
C905        C  0.86036250  0.03095049  0.55555315    -0.31000
O906        O  0.80519111  0.98497043  0.51942688    -0.22800
C907        C  0.78982764  0.99256851  0.50595754    -0.02800
C908        C  0.79296941  0.01433252  0.50038357    -0.17200
H909        H  0.81549174  0.05495167  0.50541927     0.20800
H910        H  0.84049984  0.98914205  0.54748028     0.19100
H911        H  0.86809421  0.02169516  0.56849109     0.19100
H912        H  0.78254201  0.02463596  0.49048075     0.14900
C913        C  0.77634203  0.05112086  0.69845897     0.30400
C914        C  0.78324008  0.07177315  0.69097475    -0.36000
C915        C  0.80216072  0.07195870  0.67772823     0.16400
C916        C  0.81328110  0.05307552  0.67216076     0.22200
C917        C  0.80642424  0.03258275  0.67956434    -0.34100
C918        C  0.78777281  0.03243211  0.69286514     0.16300
O919        O  0.76010093  0.04709808  0.71225609    -0.26100
C920        C  0.76131534  0.02556808  0.71545999     0.06100
C921        C  0.77824864  0.01572520  0.70383401    -0.31000
O922        O  0.83063270  0.05677158  0.65996728    -0.22800
C923        C  0.83092216  0.07836375  0.65755639    -0.02800
C924        C  0.81356706  0.08875290  0.66831040    -0.17200
H925        H  0.77479021  0.08666894  0.69558537     0.20800
H926        H  0.81535469  0.01777575  0.67562672     0.19100
H927        H  0.78347669  0.99882156  0.70433378     0.19100
H928        H  0.80990790  0.10605542  0.66905357     0.14900
C929        C  0.81933631  0.80231623  0.93576524     0.30400
C930        C  0.80871947  0.78182004  0.93555054    -0.36000
C931        C  0.80180776  0.77388654  0.95609806     0.16400
C932        C  0.80496164  0.78552755  0.97534115     0.22200
C933        C  0.81564403  0.80572246  0.97558218    -0.34100
C934        C  0.82254712  0.81349723  0.95524801     0.16300
O935        O  0.82733489  0.81302389  0.91868418    -0.26100
C936        C  0.83568321  0.83123956  0.92757786     0.06100
C937        C  0.83303968  0.83224778  0.95022333    -0.31000
O938        O  0.79553431  0.77640378  0.99233220    -0.22800
C939        C  0.78645258  0.75833054  0.98421929    -0.02800
C940        C  0.78991027  0.75577352  0.96171775    -0.17200
H941        H  0.80577845  0.77285260  0.92044914     0.20800
H942        H  0.81797290  0.81501959  0.99060254     0.19100
H943        H  0.83849611  0.84489258  0.96150622     0.19100
H944        H  0.78301884  0.74350007  0.95084595     0.14900
C945        C  0.51169878  0.97627799  0.20438004     0.30400
C946        C  0.53276680  0.97608590  0.19530861    -0.36000
C947        C  0.53639748  0.96094068  0.17830129     0.16400
C948        C  0.52051429  0.94667577  0.17084256     0.22200
C949        C  0.49923751  0.94718005  0.17965152    -0.34100
C950        C  0.49550420  0.96256297  0.19654619     0.16300
O951        O  0.50518676  0.98830844  0.22119611    -0.26100
C952        C  0.48440458  0.98255385  0.22406550     0.06100
C953        C  0.47741962  0.96666778  0.20910519    -0.31000
O954        O  0.52813684  0.93262041  0.15607498    -0.22800
C955        C  0.54908760  0.93823062  0.15383871    -0.02800
C956        C  0.55501242  0.95583909  0.16719021    -0.17200
H957        H  0.54563326  0.98663659  0.20149169     0.20800
H958        H  0.48664449  0.93596694  0.17413811     0.19100
H959        H  0.46163376  0.95870203  0.20821828     0.19100
H960        H  0.57107850  0.96299527  0.16935161     0.14900
C961        C  0.72438783  0.95461839  0.20306527     0.30400
C962        C  0.71926777  0.93375160  0.19440858    -0.36000
C963        C  0.69844655  0.93158442  0.18456470     0.16400
C964        C  0.68397875  0.94886978  0.18325601     0.22200
C965        C  0.68902651  0.96949664  0.19181412    -0.34100
C966        C  0.70955316  0.97157500  0.20166768     0.16300
O967        O  0.74220004  0.96027649  0.21422711    -0.26100
C968        C  0.73844077  0.98106263  0.21993808     0.06100
C969        C  0.71843348  0.98880741  0.21247768    -0.31000
O970        O  0.66568932  0.94370604  0.17318543    -0.22800
C971        C  0.66808704  0.92273348  0.16793208    -0.02800
C972        C  0.68816500  0.91415345  0.17465953    -0.17200
H973        H  0.73052146  0.92013940  0.19557277     0.20800
H974        H  0.67757365  0.98298591  0.19106097     0.19100
H975        H  0.71099902  0.00460481  0.21560587     0.19100
H976        H  0.69447155  0.89780333  0.17203864     0.14900
C977        C  0.68866504  0.98925848  0.02588516     0.30400
C978        C  0.67957539  0.96825479  0.02575731    -0.36000
C979        C  0.66325223  0.96440612  0.04131060     0.16400
C980        C  0.65640132  0.98004548  0.05622755     0.22200
C981        C  0.66521903  0.00134618  0.05604073    -0.34100
C982        C  0.68152117  0.00529115  0.04024630     0.16300
O983        O  0.70523681  0.99564015  0.01380785    -0.26100
C984        C  0.70872595  0.01620130  0.02010358     0.06100
C985        C  0.69436105  0.02323235  0.03646765    -0.31000
O986        O  0.64261780  0.97201362  0.07081638    -0.22800
C987        C  0.64048037  0.95105378  0.06491090    -0.02800
C988        C  0.65282889  0.94555289  0.04653804    -0.17200
H989        H  0.68543522  0.95552959  0.01482866     0.20800
H990        H  0.66034251  0.01367268  0.06787935     0.19100
H991        H  0.69421586  0.03876469  0.04509025     0.19100
H992        H  0.65508136  0.92957335  0.03912458     0.14900
C993        C  0.55597384  0.81473330  0.18874735     0.30400
C994        C  0.53674595  0.80323018  0.19325256    -0.36000
C995        C  0.53559304  0.79340515  0.21385617     0.16400
C996        C  0.55210172  0.79479895  0.22927325     0.22200
C997        C  0.57159727  0.80622270  0.22463782    -0.34100
C998        C  0.57286589  0.81598140  0.20376531     0.16300
O999        O  0.56000114  0.82558075  0.17064689    -0.26100
C1000       C  0.57989679  0.83383428  0.17372966     0.06100
C1001       C  0.58884557  0.82829286  0.19404644    -0.31000
O1002       O  0.54744736  0.78378371  0.24735342    -0.22800
C1003       C  0.52776539  0.77521459  0.24320392    -0.02800
C1004       C  0.51974848  0.78071313  0.22261626    -0.17200
H1005       H  0.52354251  0.80199875  0.18143726     0.20800
H1006       H  0.58485634  0.80732983  0.23639135     0.19100
H1007       H  0.60441857  0.83327140  0.20092800     0.19100
H1008       H  0.50461129  0.77550611  0.21493586     0.14900
C1009       C  0.70866892  0.79126007  0.04221432     0.30400
C1010       C  0.70076568  0.81274230  0.04260422    -0.36000
C1011       C  0.68695664  0.81823798  0.06006353     0.16400
C1012       C  0.68141339  0.80375207  0.07634308     0.22200
C1013       C  0.68918073  0.78200970  0.07579680    -0.34100
C1014       C  0.70286776  0.77635386  0.05802010     0.16300
O1015       O  0.72216528  0.78304643  0.02754070    -0.26100
C1016       C  0.72499971  0.76241741  0.03361583     0.06100
C1017       C  0.71328176  0.75718669  0.05246933    -0.31000
O1018       O  0.66814517  0.81266167  0.09111394    -0.22800
C1019       C  0.66509247  0.83298849  0.08392238    -0.02800
C1020       C  0.67637103  0.83724045  0.06466551    -0.17200
H1021       H  0.70509813  0.82440386  0.03009134     0.20800
H1022       H  0.68481634  0.77033735  0.08827742     0.19100
H1023       H  0.71306711  0.74183947  0.06115486     0.19100
H1024       H  0.67651008  0.85217192  0.05526291     0.14900
C1025       C  0.27816859  0.54373645  0.19737877     0.30400
C1026       C  0.28467658  0.56446063  0.18978392    -0.36000
C1027       C  0.30539677  0.56544592  0.17967243     0.16400
C1028       C  0.31849424  0.54721672  0.17707136     0.22200
C1029       C  0.31200539  0.52667222  0.18449737    -0.34100
C1030       C  0.29158760  0.52575696  0.19470401     0.16300
O1031       O  0.26039384  0.53913877  0.20887982    -0.26100
C1032       C  0.26271307  0.51798989  0.21356663     0.06100
C1033       C  0.28176545  0.50893010  0.20506972    -0.31000
O1034       O  0.33713784  0.55153476  0.16733764    -0.22800
C1035       C  0.33632546  0.57288842  0.16361778    -0.02800
C1036       C  0.31692244  0.58252761  0.17096987    -0.17200
H1037       H  0.27460111  0.57884179  0.19209476     0.20800
H1038       H  0.32241693  0.51243875  0.18286670     0.19100
H1039       H  0.28808902  0.49256960  0.20735240     0.19100
H1040       H  0.31192344  0.59944467  0.16973018     0.14900
C1041       C  0.31639331  0.50579441  0.02620641     0.30400
C1042       C  0.32707292  0.52592679  0.02443032    -0.36000
C1043       C  0.34398291  0.52981335  0.03946337     0.16400
C1044       C  0.34996306  0.51496727  0.05531501     0.22200
C1045       C  0.33971795  0.49444874  0.05662852    -0.34100
C1046       C  0.32278290  0.49050345  0.04146729     0.16300
O1047       O  0.29870701  0.49990661  0.01533800    -0.26100
C1048       C  0.29381135  0.48039937  0.02337379     0.06100
C1049       C  0.30832095  0.47356390  0.03958142    -0.31000
O1050       O  0.36384004  0.52337026  0.06971887    -0.22800
C1051       C  0.36689632  0.54373753  0.06281465    -0.02800
C1052       C  0.35519193  0.54849315  0.04387315    -0.17200
H1053       H  0.32171322  0.53823231  0.01294828     0.20800
H1054       H  0.34377519  0.48291945  0.06937600     0.19100
H1055       H  0.30748761  0.45896214  0.04943649     0.19100
H1056       H  0.35343858  0.56412650  0.03586714     0.14900
C1057       C  0.30180033  0.70616906  0.03900809     0.30400
C1058       C  0.31189356  0.68563879  0.03804813    -0.36000
C1059       C  0.32324870  0.67916503  0.05685288     0.16400
C1060       C  0.32454566  0.69179828  0.07565113     0.22200
C1061       C  0.31447331  0.71264419  0.07656874    -0.34100
C1062       C  0.30324138  0.71934925  0.05743674     0.16300
O1063       O  0.28987227  0.71483020  0.02332480    -0.26100
C1064       C  0.28371151  0.73414748  0.03133806     0.06100
C1065       C  0.29159829  0.73798272  0.05257253    -0.31000
O1066       O  0.33623289  0.68214438  0.09126747    -0.22800
C1067       C  0.34251461  0.66320624  0.08208766    -0.02800
C1068       C  0.33484159  0.66066842  0.06072718    -0.17200
H1069       H  0.31091406  0.67533611  0.02354622     0.20800
H1070       H  0.31536658  0.72290390  0.09109745     0.19100
H1071       H  0.28840369  0.75191553  0.06315570     0.19100
H1072       H  0.33762659  0.64712949  0.04951025     0.14900
C1073       C  0.45400705  0.66917156  0.19341339     0.30400
C1074       C  0.47460208  0.67626220  0.20044578    -0.36000
C1075       C  0.47498376  0.68875135  0.21971750     0.16400
C1076       C  0.45641636  0.69387359  0.23155351     0.22200
C1077       C  0.43564339  0.68658608  0.22451900    -0.34100
C1078       C  0.43521810  0.67415885  0.20494539     0.16300
O1079       O  0.45012406  0.65786093  0.17544154    -0.26100
C1080       C  0.42852760  0.65546175  0.17514231     0.06100
C1081       C  0.41825084  0.66526630  0.19312405    -0.31000
O1082       O  0.46064038  0.70734740  0.24815264    -0.22800
C1083       C  0.48214513  0.71073574  0.24673219    -0.02800
C1084       C  0.49180769  0.69958321  0.22937273    -0.17200
H1085       H  0.48928877  0.67280896  0.19113469     0.20800
H1086       H  0.42084000  0.69087968  0.23327063     0.19100
H1087       H  0.40096708  0.66569504  0.19692832     0.19100
H1088       H  0.50859577  0.70052757  0.22382436     0.14900
C1089       C  0.53278002  0.81134065  0.00269145     0.30400
C1090       C  0.54791430  0.82852653  0.00484611    -0.36000
C1091       C  0.54921325  0.83860078  0.02564770     0.16400
C1092       C  0.53633520  0.83239077  0.04308189     0.22200
C1093       C  0.52112442  0.81534940  0.04088930    -0.34100
C1094       C  0.52004961  0.80510537  0.02022298     0.16300
O1095       O  0.53017779  0.79839578  0.98535557    -0.26100
C1096       C  0.51569967  0.78360591  0.99198234     0.06100
C1097       C  0.50886020  0.78704978  0.01350755    -0.31000
O1098       O  0.54160354  0.84259925  0.06153228    -0.22800
C1099       C  0.55812918  0.85553966  0.05593473    -0.02800
C1100       C  0.56348627  0.85377995  0.03376706    -0.17200
H1101       H  0.55864770  0.83304690  0.99154651     0.20800
H1102       H  0.51155393  0.80974454  0.05464981     0.19100
H1103       H  0.49795653  0.77705532  0.02313851     0.19100
H1104       H  0.57690716  0.86146173  0.02523406     0.14900
C1105       C  0.47539094  0.67987908  0.00138012     0.30400
C1106       C  0.46011873  0.66284017  0.00327966    -0.36000
C1107       C  0.45854896  0.65317095  0.02405971     0.16400
C1108       C  0.47141506  0.65954321  0.04163125     0.22200
C1109       C  0.48682106  0.67631959  0.03965445    -0.34100
C1110       C  0.48805520  0.68624995  0.01909141     0.16300
O1111       O  0.47804805  0.69273907  0.98425047    -0.26100
C1112       C  0.49244785  0.70757532  0.99127339     0.06100
C1113       C  0.49919997  0.70427411  0.01276991    -0.31000
O1114       O  0.46576029  0.64999219  0.06006449    -0.22800
C1115       C  0.44895982  0.63737418  0.05435331    -0.02800
C1116       C  0.44382945  0.63858209  0.03211150    -0.17200
H1117       H  0.44935064  0.65828516  0.98987201     0.20800
H1118       H  0.49628403  0.68212152  0.05357142     0.19100
H1119       H  0.51000825  0.71436474  0.02265013     0.19100
H1120       H  0.43026961  0.63100670  0.02349358     0.14900
C1121       C  0.51030238  0.52299510  0.18930121     0.30400
C1122       C  0.50832575  0.53973653  0.17369966    -0.36000
C1123       C  0.48762064  0.54209074  0.16374381     0.16400
C1124       C  0.47013956  0.52873774  0.16860949     0.22200
C1125       C  0.47218101  0.51190349  0.18394883    -0.34100
C1126       C  0.49271131  0.50975224  0.19405949     0.16300
O1127       O  0.52737403  0.51921529  0.20222259    -0.26100
C1128       C  0.52048662  0.50339807  0.21543785     0.06100
C1129       C  0.49909234  0.49693463  0.21099091    -0.31000
O1130       O  0.45181216  0.53495409  0.15894303    -0.22800
C1131       C  0.45749168  0.55258724  0.14766507    -0.02800
C1132       C  0.47963057  0.55771114  0.14996946    -0.17200
H1133       H  0.52165719  0.55083370  0.17034889     0.20800
H1134       H  0.45837902  0.50186850  0.18852093     0.19100
H1135       H  0.48922167  0.48530089  0.21985921     0.19100
H1136       H  0.48826339  0.57166125  0.14348091     0.14900
C1137       C  0.34283397  0.46966447  0.45797631     0.30400
C1138       C  0.33784091  0.49192838  0.46172577    -0.36000
C1139       C  0.31925450  0.49630886  0.47473156     0.16400
C1140       C  0.30676870  0.47980312  0.48353851     0.22200
C1141       C  0.31186615  0.45773920  0.48006074    -0.34100
C1142       C  0.33008323  0.45342437  0.46689248     0.16300
O1143       O  0.35790700  0.46169451  0.44448482    -0.26100
C1144       C  0.35454077  0.44014646  0.44478842     0.06100
C1145       C  0.33743848  0.43417852  0.45843491    -0.31000
O1146       O  0.28887869  0.48709765  0.49299144    -0.22800
C1147       C  0.28960626  0.50863972  0.49040264    -0.02800
C1148       C  0.30831045  0.51545041  0.47931487    -0.17200
H1149       H  0.34704769  0.50486629  0.45405569     0.20800
H1150       H  0.30151607  0.44479357  0.48612885     0.19100
H1151       H  0.33059668  0.41805129  0.46075862     0.19100
H1152       H  0.31229156  0.53174979  0.47386571     0.14900
C1153       C  0.50311756  0.46408488  0.31903001     0.30400
C1154       C  0.49994536  0.45340433  0.33927496    -0.36000
C1155       C  0.47796223  0.45054674  0.34596351     0.16400
C1156       C  0.46054889  0.45763645  0.33342972     0.22200
C1157       C  0.46369560  0.46845156  0.31362489    -0.34100
C1158       C  0.48537517  0.47128340  0.30708543     0.16300
O1159       O  0.52194876  0.46751279  0.30865218    -0.26100
C1160       C  0.51585517  0.47704243  0.28993118     0.06100
C1161       C  0.49331460  0.47972034  0.28833457    -0.31000
O1162       O  0.44150602  0.45124376  0.34099285    -0.22800
C1163       C  0.44635174  0.44010080  0.35894886    -0.02800
C1164       C  0.46885846  0.43922967  0.36306014    -0.17200
H1165       H  0.51352964  0.44708107  0.34870414     0.20800
H1166       H  0.45007183  0.47349250  0.30347992     0.19100
H1167       H  0.48394786  0.48639843  0.27486193     0.19100
H1168       H  0.47729531  0.42987089  0.37546701     0.14900
C1169       C  0.31066207  0.30433942  0.42525648     0.30400
C1170       C  0.28968510  0.29956913  0.43298603    -0.36000
C1171       C  0.28729664  0.27956007  0.44366837     0.16400
C1172       C  0.30424632  0.26489902  0.44645575     0.22200
C1173       C  0.32528309  0.26951638  0.43829611    -0.34100
C1174       C  0.32774972  0.28977237  0.42772983     0.16300
O1175       O  0.31683480  0.32306113  0.41672016    -0.26100
C1176       C  0.33819544  0.32058657  0.41349257     0.06100
C1177       C  0.34589899  0.30011848  0.41989783    -0.31000
O1178       O  0.29863645  0.24821570  0.45901120    -0.22800
C1179       C  0.27786671  0.25245687  0.46424781    -0.02800
C1180       C  0.27007686  0.27166193  0.45506461    -0.17200
H1181       H  0.27637689  0.31119227  0.43178025     0.20800
H1182       H  0.33898625  0.25862837  0.44096266     0.19100
H1183       H  0.36259782  0.29419816  0.41983924     0.19100
H1184       H  0.25435426  0.27943164  0.45766557     0.14900
C1185       C  0.28687827  0.44815789  0.28378474     0.30400
C1186       C  0.30764259  0.43862341  0.28557564    -0.36000
C1187       C  0.31277097  0.42948169  0.30589225     0.16400
C1188       C  0.29840511  0.42948117  0.32331566     0.22200
C1189       C  0.27737445  0.43880261  0.32140585    -0.34100
C1190       C  0.27223572  0.44812561  0.30098308     0.16300
O1191       O  0.27966656  0.45915984  0.26682635    -0.26100
C1192       C  0.25999829  0.46623418  0.27291451     0.06100
C1193       C  0.25433581  0.45975032  0.29402454    -0.31000
O1194       O  0.30724181  0.42104918  0.34118440    -0.22800
C1195       C  0.32751301  0.41571471  0.33503743    -0.02800
C1196       C  0.33177113  0.42054251  0.31322779    -0.17200
H1197       H  0.31932099  0.43904362  0.27226429     0.20800
H1198       H  0.26611618  0.43938265  0.33507382     0.19100
H1199       H  0.23983975  0.46404421  0.30327966     0.19100
H1200       H  0.34689545  0.41833866  0.30425924     0.14900
C1201       C  0.43239554  0.32755941  0.29392576     0.30400
C1202       C  0.44333877  0.32730917  0.27357088    -0.36000
C1203       C  0.45220038  0.30703759  0.26688739     0.16400
C1204       C  0.45024558  0.28849746  0.27947128     0.22200
C1205       C  0.43902248  0.28865620  0.29941406    -0.34100
C1206       C  0.43040645  0.30876074  0.30609257     0.16300
O1207       O  0.42455139  0.34489421  0.30442044    -0.26100
C1208       C  0.41762600  0.33691206  0.32348342     0.06100
C1209       C  0.42077775  0.31454192  0.32529593    -0.31000
O1210       O  0.46158385  0.27195225  0.27170046    -0.22800
C1211       C  0.47087146  0.27961379  0.25367317    -0.02800
C1212       C  0.46550839  0.30138343  0.24962266    -0.17200
H1213       H  0.44566347  0.34203164  0.26415549     0.20800
H1214       H  0.43808165  0.27429115  0.30960271     0.19100
H1215       H  0.41733100  0.30419720  0.33917972     0.19100
H1216       H  0.47183207  0.31187805  0.23693304     0.14900
C1217       C  0.46654340  0.31446608  0.50262872     0.30400
C1218       C  0.45368991  0.33334710  0.49952749    -0.36000
C1219       C  0.45168622  0.34068011  0.47775017     0.16400
C1220       C  0.46152731  0.32998828  0.46033562     0.22200
C1221       C  0.47462079  0.31149280  0.46346847    -0.34100
C1222       C  0.47662882  0.30426602  0.48508042     0.16300
O1223       O  0.46933963  0.30364996  0.52117807    -0.26100
C1224       C  0.48134563  0.28636152  0.51524280     0.06100
C1225       C  0.48639935  0.28607239  0.49301960    -0.31000
O1226       O  0.45549830  0.33779216  0.44119964    -0.22800
C1227       C  0.44192343  0.35406836  0.44620299    -0.02800
C1228       C  0.43901011  0.35677769  0.46875016    -0.17200
H1229       H  0.44512419  0.34120625  0.51296993     0.20800
H1230       H  0.48188922  0.30269371  0.44982752     0.19100
H1231       H  0.49523156  0.27368133  0.48383119     0.19100
H1232       H  0.42768926  0.36760392  0.47711060     0.14900
C1233       C  0.49246833  0.03912269  0.32099519     0.30400
C1234       C  0.49512560  0.05732845  0.33511601    -0.36000
C1235       C  0.51552312  0.05906591  0.34588341     0.16400
C1236       C  0.53194286  0.04377040  0.34313511     0.22200
C1237       C  0.52917876  0.02556167  0.32934629    -0.34100
C1238       C  0.50909073  0.02404331  0.31837051     0.16300
O1239       O  0.47575018  0.03522577  0.30760965    -0.26100
C1240       C  0.48200129  0.01754834  0.29624034     0.06100
C1241       C  0.50254934  0.00997148  0.30232871    -0.31000
O1242       O  0.55037194  0.04946529  0.35287322    -0.22800
C1243       C  0.54593698  0.06872417  0.36209582    -0.02800
C1244       C  0.52439954  0.07549134  0.35843146    -0.17200
H1245       H  0.48265693  0.06980594  0.33671300     0.20800
H1246       H  0.54227807  0.01399491  0.32642504     0.19100
H1247       H  0.51177648  0.99658645  0.29518935     0.19100
H1248       H  0.51688902  0.09088288  0.36304923     0.14900
C1249       C  0.70912806  0.04162914  0.29629696     0.30400
C1250       C  0.68739820  0.04288347  0.30333350    -0.36000
C1251       C  0.68180646  0.06127421  0.31586627     0.16400
C1252       C  0.69647268  0.07759246  0.32119647     0.22200
C1253       C  0.71850983  0.07624516  0.31419117    -0.34100
C1254       C  0.72423523  0.05755670  0.30162111     0.16300
O1255       O  0.71725598  0.02611280  0.28371876    -0.26100
C1256       C  0.73804954  0.03170839  0.28084733     0.06100
C1257       C  0.74350447  0.05115453  0.29175321    -0.31000
O1258       O  0.68741687  0.09310222  0.33361310    -0.22800
C1259       C  0.66677805  0.08637005  0.33621293    -0.02800
C1260       C  0.66253017  0.06670496  0.32545781    -0.17200
H1261       H  0.67557864  0.03032043  0.29922906     0.20800
H1262       H  0.73032307  0.08880830  0.31827053     0.19100
H1263       H  0.75895064  0.05977482  0.29155453     0.19100
H1264       H  0.64747733  0.05738762  0.32528380     0.14900
C1265       C  0.68170106  0.20466485  0.43353020     0.30400
C1266       C  0.69044353  0.22605822  0.43413347    -0.36000
C1267       C  0.70217066  0.23198662  0.45329945     0.16400
C1268       C  0.70525517  0.21765071  0.47037899     0.22200
C1269       C  0.69639892  0.19656760  0.46988575    -0.34100
C1270       C  0.68459293  0.19080782  0.45101921     0.16300
O1271       O  0.66991082  0.19552574  0.41755793    -0.26100
C1272       C  0.66518540  0.17565518  0.42517335     0.06100
C1273       C  0.67392948  0.17200537  0.44589707    -0.31000
O1274       O  0.71760340  0.22578900  0.48615481    -0.22800
C1275       C  0.72239421  0.24586301  0.47954114    -0.02800
C1276       C  0.71312686  0.25076487  0.45919433    -0.17200
H1277       H  0.68829865  0.23724715  0.42064864     0.20800
H1278       H  0.69869103  0.18532023  0.48330544     0.19100
H1279       H  0.67235047  0.15758390  0.45593240     0.19100
H1280       H  0.71511519  0.26548681  0.44969914     0.14900
C1281       C  0.55334761  0.18472689  0.31485532     0.30400
C1282       C  0.53298628  0.19291121  0.30836150    -0.36000
C1283       C  0.53241504  0.20345449  0.28813164     0.16400
C1284       C  0.55053949  0.20567153  0.27488152     0.22200
C1285       C  0.57105870  0.19734321  0.28141071    -0.34100
C1286       C  0.57171632  0.18694012  0.30194483     0.16300
O1287       O  0.55737810  0.17457427  0.33332715    -0.26100
C1288       C  0.57867814  0.17021540  0.33258222     0.06100
C1289       C  0.58856964  0.17753270  0.31339884    -0.31000
O1290       O  0.54625256  0.21724527  0.25710164    -0.22800
C1291       C  0.52516677  0.22250034  0.25924771    -0.02800
C1292       C  0.51582426  0.21429927  0.27821531    -0.17200
H1293       H  0.51862730  0.19153215  0.31862350     0.20800
H1294       H  0.58554716  0.19926342  0.27144215     0.19100
H1295       H  0.60549613  0.17583313  0.30848546     0.19100
H1296       H  0.49936944  0.21682493  0.28429462     0.14900
C1297       C  0.55065210  0.16609301  0.48410587     0.30400
C1298       C  0.55010799  0.17511379  0.50545579    -0.36000
C1299       C  0.53168441  0.18802043  0.51062912     0.16400
C1300       C  0.51513392  0.19182213  0.49568521     0.22200
C1301       C  0.51544735  0.18247281  0.47465064    -0.34100
C1302       C  0.53372405  0.16963651  0.46954831     0.16300
O1303       O  0.56698489  0.15502362  0.47504232    -0.26100
C1304       C  0.56025725  0.15142029  0.45448764     0.06100
C1305       C  0.53966346  0.16011312  0.45026509    -0.31000
O1306       O  0.50107422  0.20663330  0.50258637    -0.22800
C1307       C  0.50829333  0.21224199  0.52242386    -0.02800
C1308       C  0.52720987  0.20103472  0.52846968    -0.17200
H1309       H  0.56354654  0.17306976  0.51684795     0.20800
H1310       H  0.50284626  0.18593682  0.46266379     0.19100
H1311       H  0.53077031  0.16024141  0.43488701     0.19100
H1312       H  0.53736132  0.20378236  0.54279854     0.14900
C1313       C  0.69254432  0.01786100  0.47785931     0.30400
C1314       C  0.68268229  0.03854418  0.47946917    -0.36000
C1315       C  0.66619956  0.04301178  0.46410841     0.16400
C1316       C  0.65988778  0.02819081  0.44812854     0.22200
C1317       C  0.66936026  0.00721417  0.44689558    -0.34100
C1318       C  0.68580974  0.00267545  0.46239913     0.16300
O1319       O  0.70969856  0.01122221  0.48914093    -0.26100
C1320       C  0.71384909  0.99131109  0.48120531     0.06100
C1321       C  0.69940083  0.98501766  0.46461066    -0.31000
O1322       O  0.64607078  0.03677802  0.43387228    -0.22800
C1323       C  0.64334711  0.05729148  0.44095583    -0.02800
C1324       C  0.65532214  0.06196839  0.45985345    -0.17200
H1325       H  0.68822395  0.05070326  0.49120533     0.20800
H1326       H  0.66495795  0.99564445  0.43411681     0.19100
H1327       H  0.69982217  0.97028523  0.45466533     0.19100
H1328       H  0.65709927  0.07755270  0.46820088     0.14900
C1329       C  0.18482560  0.49634562  0.52412805     0.30400
C1330       C  0.16658223  0.49398430  0.53803878    -0.36000
C1331       C  0.16062524  0.47235564  0.54320316     0.16400
C1332       C  0.17191201  0.45442905  0.53519142     0.22200
C1333       C  0.18937693  0.45673959  0.52064237    -0.34100
C1334       C  0.19528647  0.47817691  0.51558281     0.16300
O1335       O  0.19557976  0.51470472  0.52001404    -0.26100
C1336       C  0.21301325  0.50799804  0.50864082     0.06100
C1337       C  0.21331599  0.48549675  0.50517013    -0.31000
O1338       O  0.16603823  0.43604348  0.54453566    -0.22800
C1339       C  0.15039887  0.44198239  0.55846050    -0.02800
C1340       C  0.14608363  0.46437238  0.55819701    -0.17200
H1341       H  0.15863931  0.50795129  0.54557080     0.20800
H1342       H  0.19879796  0.44281715  0.51498506     0.19100
H1343       H  0.22616444  0.47567182  0.49785842     0.19100
H1344       H  0.13528718  0.47357921  0.56887443     0.14900
C1345       C  0.04725353  0.28796680  0.71485960     0.30400
C1346       C  0.05625518  0.28972017  0.69386373    -0.36000
C1347       C  0.06919006  0.30814032  0.69013739     0.16400
C1348       C  0.07307155  0.32399021  0.70588670     0.22200
C1349       C  0.06424707  0.32203726  0.72721073    -0.34100
C1350       C  0.05123943  0.30337857  0.73103094     0.16300
O1351       O  0.03358180  0.27269962  0.72110778    -0.26100
C1352       C  0.02866552  0.27798008  0.74171946     0.06100
C1353       C  0.03930676  0.29691322  0.74895556    -0.31000
O1354       O  0.08461335  0.34055966  0.69806871    -0.22800
C1355       C  0.08819511  0.33499056  0.67711902    -0.02800
C1356       C  0.07899646  0.31494422  0.67145953    -0.17200
H1357       H  0.05287010  0.27781617  0.68108323     0.20800
H1358       H  0.06683437  0.33442611  0.73970455     0.19100
H1359       H  0.03765358  0.30520963  0.76460949     0.19100
H1360       H  0.07881537  0.30692469  0.65556518     0.14900
C1361       C  0.02742649  0.30901377  0.51767897     0.30400
C1362       C  0.03000144  0.31475440  0.53974713    -0.36000
C1363       C  0.04438437  0.33191547  0.54419078     0.16400
C1364       C  0.05548090  0.34303906  0.52807645     0.22200
C1365       C  0.05272007  0.33737923  0.50573265    -0.34100
C1366       C  0.03828771  0.31990689  0.50123744     0.16300
O1367       O  0.01617657  0.29219287  0.51039658    -0.26100
C1368       C  0.01956576  0.29207714  0.48890131     0.06100
C1369       C  0.03312578  0.30906444  0.48210241    -0.31000
O1370       O  0.06949549  0.35740104  0.53643940    -0.22800
C1371       C  0.06715365  0.35520549  0.55807773    -0.02800
C1372       C  0.05182567  0.33958709  0.56371575    -0.17200
H1373       H  0.02204398  0.30576253  0.55268799     0.20800
H1374       H  0.06181947  0.34538860  0.49289791     0.19100
H1375       H  0.03921309  0.31218378  0.46577189     0.19100
H1376       H  0.04768597  0.33385869  0.57993716     0.14900
C1377       C  0.21135536  0.43224513  0.67946208     0.30400
C1378       C  0.23295665  0.44015757  0.68154432    -0.36000
C1379       C  0.23780200  0.45179478  0.70101543     0.16400
C1380       C  0.22232067  0.45531181  0.71710385     0.22200
C1381       C  0.20095870  0.44728513  0.71514141    -0.34100
C1382       C  0.19618569  0.43572029  0.69584792     0.16300
O1383       O  0.20285133  0.42175830  0.66237985    -0.26100
C1384       C  0.18204649  0.41842760  0.66807661     0.06100
C1385       C  0.17706408  0.42678237  0.68874564    -0.31000
O1386       O  0.22961615  0.46760020  0.73328038    -0.22800
C1387       C  0.25016434  0.47211320  0.72783526    -0.02800
C1388       C  0.25633369  0.46258643  0.70790195    -0.17200
H1389       H  0.24495755  0.43782843  0.66871023     0.20800
H1390       H  0.18872667  0.45032143  0.72761809     0.19100
H1391       H  0.16143975  0.42679133  0.69707789     0.19100
H1392       H  0.27172408  0.46421235  0.69933330     0.14900
C1393       C  0.20546427  0.26963998  0.54855169     0.30400
C1394       C  0.18720755  0.27243213  0.56235573    -0.36000
C1395       C  0.18401925  0.29362210  0.57102041     0.16400
C1396       C  0.19795349  0.31075047  0.56655444     0.22200
C1397       C  0.21611594  0.30796100  0.55287708    -0.34100
C1398       C  0.21913868  0.28696467  0.54409190     0.16300
O1399       O  0.21116801  0.25159519  0.53779274    -0.26100
C1400       C  0.22859433  0.25766730  0.52622903     0.06100
C1401       C  0.23420545  0.27946069  0.52959304    -0.31000
O1402       O  0.19141854  0.32939413  0.57532911    -0.22800
C1403       C  0.17297743  0.32431755  0.58559353    -0.02800
C1404       C  0.16755152  0.30224981  0.58352052    -0.17200
H1405       H  0.17597687  0.25920663  0.56563401     0.20800
H1406       H  0.22681477  0.32141427  0.54884327     0.19100
H1407       H  0.24732315  0.28859179  0.52207807     0.19100
H1408       H  0.15314093  0.29400835  0.58955839     0.14900
C1409       C  0.05240875  0.45963646  0.67404029     0.30400
C1410       C  0.04980218  0.47037578  0.69414174    -0.36000
C1411       C  0.02836433  0.47555722  0.70002624     0.16400
C1412       C  0.01041152  0.47062499  0.68716086     0.22200
C1413       C  0.01308807  0.46018170  0.66658668    -0.34100
C1414       C  0.03479388  0.45494084  0.66058366     0.16300
O1415       O  0.07082940  0.45119153  0.66686730    -0.26100
C1416       C  0.06533192  0.44111820  0.64830864     0.06100
C1417       C  0.04310752  0.44304044  0.64332582    -0.31000
O1418       O  0.99171192  0.47557773  0.69711504    -0.22800
C1419       C  0.99808198  0.48380631  0.71646809    -0.02800
C1420       C  0.02067817  0.48421360  0.71893798    -0.17200
H1421       H  0.06351749  0.47353985  0.70498306     0.20800
H1422       H  0.99923563  0.45563703  0.65644752     0.19100
H1423       H  0.03415558  0.43520555  0.63009614     0.19100
H1424       H  0.03014655  0.48934048  0.73310906     0.14900
C1425       C  0.66190128  0.48250306  0.24509314     0.30400
C1426       C  0.64265861  0.47912221  0.23283923    -0.36000
C1427       C  0.62280510  0.48257772  0.24398371     0.16400
C1428       C  0.62181370  0.48849907  0.26584848     0.22200
C1429       C  0.64109402  0.49215019  0.27806067    -0.34100
C1430       C  0.66098870  0.48911257  0.26677132     0.16300
O1431       O  0.68220349  0.48084352  0.23771791    -0.26100
C1432       C  0.69455658  0.48673169  0.25480830     0.06100
C1433       C  0.68219058  0.49216216  0.27328790    -0.31000
O1434       O  0.60141641  0.49085249  0.27289063    -0.22800
C1435       C  0.58919591  0.48672399  0.25516750    -0.02800
C1436       C  0.60169405  0.48158379  0.23674225    -0.17200
H1437       H  0.64312778  0.47448779  0.21568594     0.20800
H1438       H  0.64062580  0.49734459  0.29505707     0.19100
H1439       H  0.68800551  0.49781173  0.28912733     0.19100
H1440       H  0.59599645  0.47771868  0.22034464     0.14900
C1441       C  0.74329518  0.39018269  0.50324590     0.30400
C1442       C  0.73024861  0.37127307  0.50267609    -0.36000
C1443       C  0.74144016  0.35120641  0.50319321     0.16400
C1444       C  0.76392470  0.34981279  0.50470795     0.22200
C1445       C  0.77700972  0.36874928  0.50499213    -0.34100
C1446       C  0.76582102  0.38884036  0.50398171     0.16300
O1447       O  0.73619213  0.41057426  0.50285750    -0.26100
C1448       C  0.75437775  0.42255973  0.50300057     0.06100
C1449       C  0.77334376  0.40988891  0.50357437    -0.31000
O1450       O  0.77090876  0.32935421  0.50541827    -0.22800
C1451       C  0.75268436  0.31746234  0.50390672    -0.02800
C1452       C  0.73386737  0.33021839  0.50239798    -0.17200
H1453       H  0.71259075  0.37214970  0.50174289     0.20800
H1454       H  0.79467348  0.36787362  0.50580429     0.19100
H1455       H  0.79015955  0.41539996  0.50392308     0.19100
H1456       H  0.71706017  0.32479136  0.50117802     0.14900
C1457       C  0.85177951  0.49514965  0.74070013     0.30400
C1458       C  0.87056925  0.49717370  0.72757828    -0.36000
C1459       C  0.89077526  0.49490365  0.73840436     0.16400
C1460       C  0.89230862  0.49123548  0.76065846     0.22200
C1461       C  0.87356558  0.48863400  0.77363653    -0.34100
C1462       C  0.85341514  0.49056441  0.76276831     0.16300
O1463       O  0.83128179  0.49781683  0.73429529    -0.26100
C1464       C  0.81966315  0.49446862  0.75241866     0.06100
C1465       C  0.83256358  0.48968845  0.77057841    -0.31000
O1466       O  0.91271741  0.49102392  0.76769312    -0.22800
C1467       C  0.92453675  0.49421854  0.74969764    -0.02800
C1468       C  0.91177380  0.49657151  0.73090338    -0.17200
H1469       H  0.86951299  0.50070134  0.71024687     0.20800
H1470       H  0.87462557  0.48571907  0.79108944     0.19100
H1471       H  0.82734363  0.48688402  0.78727211     0.19100
H1472       H  0.91715903  0.49977474  0.71434264     0.14900
C1473       C  0.39220080  0.51264919  0.76226922     0.30400
C1474       C  0.37301120  0.51701168  0.77417312    -0.36000
C1475       C  0.35319496  0.51266264  0.76329145     0.16400
C1476       C  0.35222657  0.50423486  0.74224658     0.22200
C1477       C  0.37146550  0.50028542  0.73014529    -0.34100
C1478       C  0.39134028  0.50500391  0.74091892     0.16300
O1479       O  0.41244533  0.51485285  0.76957795    -0.26100
C1480       C  0.42482867  0.50895205  0.75258264     0.06100
C1481       C  0.41258910  0.50282521  0.73421980    -0.31000
O1482       O  0.33188869  0.50038895  0.73573331    -0.22800
C1483       C  0.31967490  0.50679232  0.75273039    -0.02800
C1484       C  0.33211381  0.51466703  0.77025412    -0.17200
H1485       H  0.37349927  0.52313620  0.79086844     0.20800
H1486       H  0.37098610  0.49377942  0.71359463     0.19100
H1487       H  0.41850492  0.49697976  0.71850989     0.19100
H1488       H  0.32644489  0.52041172  0.78609558     0.14900
C1489       C  0.74608675  0.84945062  0.50417550     0.30400
C1490       C  0.73262701  0.86808311  0.50535234    -0.36000
C1491       C  0.74285520  0.88822916  0.50144866     0.16400
C1492       C  0.76495198  0.88999214  0.49723566     0.22200
C1493       C  0.77837992  0.87134537  0.49582181    -0.34100
C1494       C  0.76803457  0.85115148  0.49920457     0.16300
O1495       O  0.73975344  0.82895691  0.50651839    -0.26100
C1496       C  0.75778594  0.81730809  0.50265131     0.06100
C1497       C  0.77587367  0.83026705  0.49793899    -0.31000
O1498       O  0.77115985  0.91046109  0.49449362    -0.22800
C1499       C  0.75273360  0.92196674  0.49656358    -0.02800
C1500       C  0.73457894  0.90896474  0.50080620    -0.17200
H1501       H  0.71528578  0.86691604  0.50873540     0.20800
H1502       H  0.79564052  0.87248315  0.49203295     0.19100
H1503       H  0.79231283  0.82501625  0.49388814     0.19100
H1504       H  0.71782190  0.91410417  0.50342534     0.14900
C1505       C  0.50616636  0.75663776  0.38866493     0.30400
C1506       C  0.51031138  0.76867476  0.36957913    -0.36000
C1507       C  0.50833011  0.75727029  0.34957249     0.16400
C1508       C  0.50223582  0.73559151  0.34838859     0.22200
C1509       C  0.49838128  0.72344885  0.36751037    -0.34100
C1510       C  0.50080319  0.73475606  0.38756642     0.16300
O1511       O  0.50722919  0.76407916  0.40904006    -0.26100
C1512       C  0.50289328  0.74668517  0.42127423     0.06100
C1513       C  0.49884620  0.72792567  0.40879118    -0.31000
O1514       O  0.50067747  0.72838836  0.32793556    -0.22800
C1515       C  0.50615954  0.74557903  0.31582346    -0.02800
C1516       C  0.51121171  0.76397045  0.32845452    -0.17200
H1517       H  0.51485279  0.78576707  0.37029143     0.20800
H1518       H  0.49387701  0.70634647  0.36679719     0.19100
H1519       H  0.49492576  0.71170523  0.41453044     0.19100
H1520       H  0.51582050  0.78006068  0.32286049     0.14900
C1521       C  0.50515213  0.73623099  0.84798694     0.30400
C1522       C  0.50964428  0.72353358  0.86663365    -0.36000
C1523       C  0.50720320  0.73414036  0.88708655     0.16400
C1524       C  0.50126352  0.75585085  0.88899348     0.22200
C1525       C  0.49643614  0.76836363  0.87043094    -0.34100
C1526       C  0.49834608  0.75765784  0.85009040     0.16300
O1527       O  0.50709714  0.73004611  0.82721027    -0.26100
C1528       C  0.50095615  0.74763824  0.81595234     0.06100
C1529       C  0.49518994  0.76518758  0.82938628    -0.31000
O1530       O  0.50030553  0.76265389  0.90957738    -0.22800
C1531       C  0.50529340  0.74500160  0.92115366    -0.02800
C1532       C  0.50967841  0.72672980  0.90803447    -0.17200
H1533       H  0.51472814  0.70661600  0.86529813     0.20800
H1534       H  0.49149944  0.78532365  0.87175919     0.19100
H1535       H  0.49042051  0.78149854  0.82454362     0.19100
H1536       H  0.51406503  0.71041716  0.91321071     0.14900
C1537       C  0.74052099  0.15821190  0.99955269     0.30400
C1538       C  0.72674077  0.13986844  0.99813075    -0.36000
C1539       C  0.73689779  0.11941581  0.00070469     0.16400
C1540       C  0.75914613  0.11714538  0.00392763     0.22200
C1541       C  0.77284712  0.13548061  0.00570429    -0.34100
C1542       C  0.76262547  0.15591732  0.00362690     0.16300
O1543       O  0.73464522  0.17886336  0.99720091    -0.26100
C1544       C  0.75317239  0.18993201  0.00026203     0.06100
C1545       C  0.77106539  0.17649430  0.00442052    -0.31000
O1546       O  0.76530421  0.09649262  0.00510259    -0.22800
C1547       C  0.74670831  0.08535228  0.00303568    -0.02800
C1548       C  0.72848243  0.09876476  0.00037017    -0.17200
H1549       H  0.70935240  0.14142457  0.99517132     0.20800
H1550       H  0.79026855  0.13392117  0.00846537     0.19100
H1551       H  0.78795365  0.18120078  0.00695168     0.19100
H1552       H  0.71159663  0.09394952  0.99806495     0.14900
C1553       C  0.15583445  0.00316065  0.76419053     0.30400
C1554       C  0.13694937  0.00573249  0.77715891    -0.36000
C1555       C  0.11675932  0.00499531  0.76601617     0.16400
C1556       C  0.11523584  0.00242650  0.74356213     0.22200
C1557       C  0.13411504  0.99958667  0.73062291    -0.34100
C1558       C  0.15428755  0.99980467  0.74183552     0.16300
O1559       O  0.17634318  0.00320163  0.77123335    -0.26100
C1560       C  0.18815761  0.99940905  0.75322691     0.06100
C1561       C  0.17525039  0.99704045  0.73446751    -0.31000
O1562       O  0.09471168  0.00230059  0.73654629    -0.22800
C1563       C  0.08284493  0.00443482  0.75478100    -0.02800
C1564       C  0.09574439  0.00611653  0.77361113    -0.17200
H1565       H  0.13792105  0.00791968  0.79477254     0.20800
H1566       H  0.13312913  0.99710949  0.71304647     0.19100
H1567       H  0.18058686  0.99405030  0.71778923     0.19100
H1568       H  0.09038534  0.00787457  0.79044696     0.14900
C1569       C  0.00313375  0.74113183  0.11726661     0.30400
C1570       C  0.00295907  0.72849061  0.13638557    -0.36000
C1571       C  0.00463340  0.74009967  0.15628088     0.16400
C1572       C  0.00677559  0.76254892  0.15725625     0.22200
C1573       C  0.00662927  0.77519142  0.13817339    -0.34100
C1574       C  0.00450875  0.76363467  0.11832530     0.16300
O1575       O  0.00190193  0.73371494  0.09691225    -0.26100
C1576       C  0.00210571  0.75173267  0.08482616     0.06100
C1577       C  0.00355519  0.77083122  0.09727238    -0.31000
O1578       O  0.00785695  0.77007305  0.17755421    -0.22800
C1579       C  0.00607129  0.75227025  0.18977619    -0.02800
C1580       C  0.00394801  0.73313441  0.17744921    -0.17200
H1581       H  0.00141540  0.71087420  0.13579553     0.20800
H1582       H  0.00781724  0.79283501  0.13878076     0.19100
H1583       H  0.00432918  0.78752006  0.09158177     0.19100
H1584       H  0.00176805  0.71661610  0.18326374     0.14900
C1585       C  0.23939128  0.61177830  0.49792522     0.30400
C1586       C  0.22660177  0.63064964  0.49459789    -0.36000
C1587       C  0.23741841  0.65084814  0.49703120     0.16400
C1588       C  0.25922420  0.65236214  0.50274123     0.22200
C1589       C  0.27205791  0.63352080  0.50574617    -0.34100
C1590       C  0.26135286  0.61336318  0.50295596     0.16300
O1591       O  0.23267381  0.59123849  0.49655527    -0.26100
C1592       C  0.25065728  0.57948706  0.50043902     0.06100
C1593       C  0.26898766  0.59244279  0.50443448    -0.31000
O1594       O  0.26590822  0.67282897  0.50478384    -0.22800
C1595       C  0.24826830  0.68471901  0.50000558    -0.02800
C1596       C  0.23007025  0.67187193  0.49493238    -0.17200
H1597       H  0.20941128  0.62965543  0.49038204     0.20800
H1598       H  0.28924723  0.63451199  0.50996784     0.19100
H1599       H  0.28550429  0.58717916  0.50810972     0.19100
H1600       H  0.21372636  0.67726055  0.49071166     0.14900
C1601       C  0.23681384  0.11290936  0.50451380     0.30400
C1602       C  0.22509304  0.13259748  0.50681076    -0.36000
C1603       C  0.23673248  0.15185795  0.50235855     0.16400
C1604       C  0.25824599  0.15173317  0.49551873     0.22200
C1605       C  0.26999558  0.13207080  0.49340279    -0.34100
C1606       C  0.25855131  0.11287217  0.49843311     0.16300
O1607       O  0.22933532  0.09302947  0.50827114    -0.26100
C1608       C  0.24664372  0.08013801  0.50499997     0.06100
C1609       C  0.26527174  0.09160891  0.49891017    -0.31000
O1610       O  0.26595481  0.17160902  0.49225226    -0.22800
C1611       C  0.24929742  0.18470975  0.49744079    -0.02800
C1612       C  0.23071164  0.17331023  0.50390953    -0.17200
H1613       H  0.20818353  0.13290380  0.51207709     0.20800
H1614       H  0.28702791  0.13179264  0.48855301     0.19100
H1615       H  0.28135710  0.08515904  0.49517935     0.19100
H1616       H  0.21506173  0.17990634  0.50901062     0.14900
C1617       C  0.00129486  0.73437037  0.66263582     0.30400
C1618       C  0.00504061  0.72222559  0.64324511    -0.36000
C1619       C  0.00122702  0.73314198  0.62334409     0.16400
C1620       C  0.99470880  0.75471576  0.62255582     0.22200
C1621       C  0.99074836  0.76678481  0.64193079    -0.34100
C1622       C  0.99408194  0.75571946  0.66181744     0.16300
O1623       O  0.00347428  0.72729338  0.68300426    -0.26100
C1624       C  0.99726180  0.74422040  0.69548155     0.06100
C1625       C  0.99117966  0.76232318  0.68311117    -0.31000
O1626       O  0.99246555  0.76180323  0.60221644    -0.22800
C1627       C  0.99720228  0.74443926  0.58971071    -0.02800
C1628       C  0.00267995  0.72611017  0.60201247    -0.17200
H1629       H  0.01032594  0.70534518  0.64364642     0.20800
H1630       H  0.98522925  0.78359143  0.64152644     0.19100
H1631       H  0.98550203  0.77808272  0.68898057     0.19100
H1632       H  0.00732925  0.71004316  0.59607278     0.14900
C1633       C  0.15817271  0.96111216  0.47397451     0.30400
C1634       C  0.17449432  0.96294479  0.49004907    -0.36000
C1635       C  0.18496439  0.98324205  0.49161137     0.16400
C1636       C  0.17951628  0.00078545  0.47859424     0.22200
C1637       C  0.16294906  0.99901955  0.46263351    -0.34100
C1638       C  0.15271446  0.97851987  0.46077195     0.16300
O1639       O  0.14832088  0.94287727  0.46800010    -0.26100
C1640       C  0.13641168  0.94852983  0.45067271     0.06100
C1641       C  0.13836949  0.97056965  0.44548252    -0.31000
O1642       O  0.19272179  0.01764185  0.48169745    -0.22800
C1643       C  0.20685199  0.01065934  0.49676684    -0.02800
C1644       C  0.20275616  0.98940687  0.50351410    -0.17200
H1645       H  0.17955794  0.94911884  0.49978329     0.20800
H1646       H  0.15915790  0.01229046  0.45164180     0.19100
H1647       H  0.13154719  0.97905326  0.43154062     0.19100
H1648       H  0.21218967  0.97957197  0.51479311     0.14900
C1649       C  0.02467376  0.81281629  0.51089350     0.30400
C1650       C  0.03976849  0.83016972  0.50958145    -0.36000
C1651       C  0.04240645  0.83961567  0.48872976     0.16400
C1652       C  0.03061107  0.83277123  0.47060226     0.22200
C1653       C  0.01536899  0.81574667  0.47198532    -0.34100
C1654       C  0.01311771  0.80604174  0.49259655     0.16300
O1655       O  0.02141510  0.79992834  0.52796822    -0.26100
C1656       C  0.00771779  0.78466594  0.52034618     0.06100
C1657       C  0.00201595  0.78780026  0.49848259    -0.31000
O1658       O  0.03705613  0.84216782  0.45233646    -0.22800
C1659       C  0.05336779  0.85518059  0.45860941    -0.02800
C1660       C  0.05735935  0.85437496  0.48115335    -0.17200
H1661       H  0.04968886  0.83507066  0.52348591     0.20800
H1662       H  0.00682710  0.80959419  0.45765563     0.19100
H1663       H  0.99208715  0.77737427  0.48805229     0.19100
H1664       H  0.07028269  0.86237785  0.49033310     0.14900
C1665       C  0.04627814  0.80783989  0.27553234     0.30400
C1666       C  0.06667159  0.81630338  0.28235795    -0.36000
C1667       C  0.06730023  0.82579553  0.30351340     0.16400
C1668       C  0.04900697  0.82710317  0.31669511     0.22200
C1669       C  0.02872934  0.81906266  0.30980213    -0.34100
C1670       C  0.02819217  0.80941559  0.28897474     0.16300
O1671       O  0.04232643  0.79592903  0.25769037    -0.26100
C1672       C  0.02148697  0.78991463  0.25998353     0.06100
C1673       C  0.01195625  0.79803443  0.27903204    -0.31000
O1674       O  0.05309695  0.83593795  0.33596949    -0.22800
C1675       C  0.07435823  0.84037554  0.33547190    -0.02800
C1676       C  0.08416517  0.83447108  0.31563257    -0.17200
H1677       H  0.08117955  0.81475478  0.27231921     0.20800
H1678       H  0.01450111  0.81953408  0.32034163     0.19100
H1679       H  0.99586079  0.79452482  0.28549315     0.19100
H1680       H  0.10106994  0.83647026  0.31081499     0.14900
C1681       C  0.17665369  0.79990223  0.43447746     0.30400
C1682       C  0.18687663  0.77918248  0.43291899    -0.36000
C1683       C  0.19786286  0.77185201  0.45194482     0.16400
C1684       C  0.19889197  0.78431603  0.47089754     0.22200
C1685       C  0.18858003  0.80468524  0.47250882    -0.34100
C1686       C  0.17752819  0.81179498  0.45377970     0.16300
O1687       O  0.16537640  0.81018710  0.41898424    -0.26100
C1688       C  0.15895706  0.82876519  0.42876929     0.06100
C1689       C  0.16610621  0.83045252  0.45037325    -0.31000
O1690       O  0.21094939  0.77532166  0.48628175    -0.22800
C1691       C  0.21760843  0.75650054  0.47751522    -0.02800
C1692       C  0.20988997  0.75331550  0.45612594    -0.17200
H1693       H  0.18640883  0.76953664  0.41795302     0.20800
H1694       H  0.18932468  0.81448406  0.48737361     0.19100
H1695       H  0.16316700  0.84359622  0.46201956     0.19100
H1696       H  0.21359170  0.73997092  0.44495977     0.14900
C1697       C  0.28655607  0.96141899  0.70637538     0.30400
C1698       C  0.30740329  0.96127550  0.69706800    -0.36000
C1699       C  0.31389024  0.94177920  0.68694818     0.16400
C1700       C  0.30094259  0.92336196  0.68588984     0.22200
C1701       C  0.27974377  0.92354785  0.69521608    -0.34100
C1702       C  0.27307112  0.94336269  0.70537772     0.16300
O1703       O  0.27804451  0.97777743  0.71754740    -0.26100
C1704       C  0.25854303  0.97060419  0.72374636     0.06100
C1705       C  0.25437513  0.94923339  0.71656398    -0.31000
O1706       O  0.31069282  0.90702528  0.67512211    -0.22800
C1707       C  0.33002888  0.91539628  0.66934230    -0.02800
C1708       C  0.33270239  0.93689454  0.67638820    -0.17200
H1709       H  0.31798838  0.97544213  0.69784188     0.20800
H1710       H  0.26925621  0.90931518  0.69464317     0.19100
H1711       H  0.24033364  0.93914054  0.72017623     0.19100
H1712       H  0.34646213  0.94765662  0.67362792     0.14900
C1713       C  0.33002504  0.95919283  0.54524063     0.30400
C1714       C  0.31334316  0.96141684  0.52961453    -0.36000
C1715       C  0.30295757  0.98183240  0.52890403     0.16400
C1716       C  0.30871319  0.99917169  0.54234264     0.22200
C1717       C  0.32551764  0.99695833  0.55803450    -0.34100
C1718       C  0.33576276  0.97632677  0.55896284     0.16300
O1719       O  0.34048220  0.94092239  0.54987263    -0.26100
C1720       C  0.35313972  0.94624473  0.56686463     0.06100
C1721       C  0.35093813  0.96812017  0.57320162    -0.31000
O1722       O  0.29593203  0.01644470  0.53943827    -0.22800
C1723       C  0.28175834  0.00986189  0.52408116    -0.02800
C1724       C  0.28539500  0.98849517  0.51703367    -0.17200
H1725       H  0.30821283  0.94787703  0.51930586     0.20800
H1726       H  0.32975300  0.01009648  0.56924258     0.19100
H1727       H  0.35846254  0.97639454  0.58704376     0.19100
H1728       H  0.27599017  0.97902275  0.50527847     0.14900
C1729       C  0.46538984  0.83550015  0.54024828     0.30400
C1730       C  0.48275068  0.82066889  0.53796261    -0.36000
C1731       C  0.48465567  0.81025914  0.51747599     0.16400
C1732       C  0.47069578  0.81431799  0.50014902     0.22200
C1733       C  0.45347954  0.82948384  0.50233756    -0.34100
C1734       C  0.45135180  0.83969874  0.52301464     0.16300
O1735       O  0.45914820  0.84498813  0.55872536    -0.26100
C1736       C  0.44082650  0.85546231  0.55339275     0.06100
C1737       C  0.43525932  0.85286591  0.53132479    -0.31000
O1738       O  0.47423693  0.80104774  0.48321917    -0.22800
C1739       C  0.49060776  0.78830763  0.48992492    -0.02800
C1740       C  0.49772879  0.79343696  0.51104885    -0.17200
H1741       H  0.49327724  0.81655309  0.55163478     0.20800
H1742       H  0.44180694  0.83219602  0.48925186     0.19100
H1743       H  0.42068502  0.85857597  0.52301709     0.19100
H1744       H  0.50990421  0.78503239  0.52078824     0.14900
C1745       C  0.47018528  0.80007056  0.71838510     0.30400
C1746       C  0.47034496  0.81010981  0.69789205    -0.36000
C1747       C  0.45030719  0.81826833  0.69051788     0.16400
C1748       C  0.43118080  0.81685759  0.70237088     0.22200
C1749       C  0.43106557  0.80690379  0.72322622    -0.34100
C1750       C  0.45134589  0.79864328  0.73072547     0.16300
O1751       O  0.48692966  0.79003479  0.72735870    -0.26100
C1752       C  0.47910720  0.78210708  0.74596241     0.06100
C1753       C  0.45701256  0.78708841  0.74913547    -0.31000
O1754       O  0.41434267  0.82580313  0.69189006    -0.22800
C1755       C  0.42305181  0.83292637  0.67316425    -0.02800
C1756       C  0.44532658  0.82858357  0.67160122    -0.17200
H1757       H  0.48506429  0.81110546  0.68813447     0.20800
H1758       H  0.41624630  0.80545182  0.73275951     0.19100
H1759       H  0.44642029  0.78173169  0.76222157     0.19100
H1760       H  0.45641145  0.83281135  0.65848916     0.14900
C1761       C  0.32181893  0.79523613  0.57209245     0.30400
C1762       C  0.31328496  0.77372474  0.57116970    -0.36000
C1763       C  0.30149964  0.76798073  0.55192882     0.16400
C1764       C  0.29836715  0.78255379  0.53505849     0.22200
C1765       C  0.30713014  0.80362504  0.53580439    -0.34100
C1766       C  0.31879209  0.80924076  0.55475329     0.16300
O1767       O  0.33306275  0.80457596  0.58839724    -0.26100
C1768       C  0.33720998  0.82471672  0.58108311     0.06100
C1769       C  0.32870505  0.82828049  0.56026609    -0.31000
O1770       O  0.28563093  0.77486138  0.51940901    -0.22800
C1771       C  0.28050622  0.75483390  0.52583795    -0.02800
C1772       C  0.29008072  0.74945452  0.54595219    -0.17200
H1773       H  0.31534202  0.76243997  0.58458782     0.20800
H1774       H  0.30458451  0.81510454  0.52262770     0.19100
H1775       H  0.32976670  0.84292606  0.55048496     0.19100
H1776       H  0.28784911  0.73470509  0.55534913     0.14900
C1777       C  0.00630178  0.26637773  0.34430530     0.30400
C1778       C  0.00519272  0.27949643  0.36332965    -0.36000
C1779       C  0.00457487  0.26836434  0.38338041     0.16400
C1780       C  0.00460422  0.24585403  0.38462010     0.22200
C1781       C  0.00601488  0.23274768  0.36561111    -0.34100
C1782       C  0.00709626  0.24388279  0.34558262     0.16300
O1783       O  0.00673451  0.27333473  0.32385751    -0.26100
C1784       C  0.00825336  0.25508599  0.31185721     0.06100
C1785       C  0.00868898  0.23626453  0.32451840    -0.31000
O1786       O  0.00368470  0.23886529  0.40504151    -0.22800
C1787       C  0.00338772  0.25712648  0.41710449    -0.02800
C1788       C  0.00398288  0.27598463  0.40448464    -0.17200
H1789       H  0.00490282  0.29716823  0.36255298     0.20800
H1790       H  0.00636681  0.21507850  0.36639389     0.19100
H1791       H  0.00945175  0.21942785  0.31895501     0.19100
H1792       H  0.00396056  0.29283236  0.41007224     0.14900
C1793       C  0.03930649  0.20641788  0.21149344     0.30400
C1794       C  0.03944884  0.19808763  0.19005028    -0.36000
C1795       C  0.05674612  0.18406119  0.18474564     0.16400
C1796       C  0.07309968  0.17868691  0.19937991     0.22200
C1797       C  0.07283639  0.18692862  0.22109126    -0.34100
C1798       C  0.05520784  0.20085435  0.22655862     0.16300
O1799       O  0.02490389  0.22032082  0.21943417    -0.26100
C1800       C  0.03123975  0.22370267  0.24004946     0.06100
C1801       C  0.04999622  0.21189510  0.24556996    -0.31000
O1802       O  0.08764612  0.16509841  0.19063365    -0.22800
C1803       C  0.08021641  0.16167284  0.17027866    -0.02800
C1804       C  0.06106901  0.17306864  0.16581705    -0.17200
H1805       H  0.02689265  0.20230019  0.17826751     0.20800
H1806       H  0.08541472  0.18275822  0.23285744     0.19100
H1807       H  0.05893841  0.21215881  0.26091116     0.19100
H1808       H  0.05154571  0.17300936  0.15081994     0.14900
C1809       C  0.99586778  0.23521173  0.88173523     0.30400
C1810       C  0.98932975  0.22489091  0.86202069    -0.36000
C1811       C  0.99133520  0.23732997  0.84276926     0.16400
C1812       C  0.99953487  0.25833330  0.84286935     0.22200
C1813       C  0.00557063  0.26879257  0.86257152    -0.34100
C1814       C  0.00330207  0.25649345  0.88178360     0.16300
O1815       O  0.99557066  0.22669619  0.90167550    -0.26100
C1816       C  0.00266589  0.24289042  0.91465450     0.06100
C1817       C  0.00755515  0.26179740  0.90311428    -0.31000
O1818       O  0.00143902  0.26644580  0.82293477    -0.22800
C1819       C  0.99401042  0.25060783  0.80978193    -0.02800
C1820       C  0.98729361  0.23217097  0.82126242    -0.17200
H1821       H  0.98330094  0.20827429  0.86167615     0.20800
H1822       H  0.01186983  0.28530994  0.86287891     0.19100
H1823       H  0.01337389  0.27726747  0.90958354     0.19100
H1824       H  0.98132630  0.21682800  0.81462697     0.14900
C1825       C  0.03914393  0.15658332  0.03645338     0.30400
C1826       C  0.02273197  0.17234940  0.03346407    -0.36000
C1827       C  0.02177337  0.18212472  0.01273492     0.16400
C1828       C  0.03575082  0.17666666  0.99580477     0.22200
C1829       C  0.05212728  0.16067848  0.99875222    -0.34100
C1830       C  0.05329197  0.15105808  0.01968205     0.16300
O1831       O  0.04425357  0.14712219  0.05519077    -0.26100
C1832       C  0.06198907  0.13530591  0.05054447     0.06100
C1833       C  0.06830120  0.13708497  0.02862710    -0.31000
O1834       O  0.03298887  0.18931806  0.97840873    -0.22800
C1835       C  0.01708478  0.20308998  0.98442210    -0.02800
C1836       C  0.00957656  0.19924907  0.00558847    -0.17200
H1837       H  0.01212593  0.17745195  0.04674906     0.20800
H1838       H  0.06381024  0.15678046  0.98599289     0.19100
H1839       H  0.08264595  0.13019134  0.02080158     0.19100
H1840       H  0.99764525  0.20859359  0.01484535     0.14900
C1841       C  0.34046622  0.99745950  0.24735942     0.30400
C1842       C  0.35954755  0.00025223  0.23483676    -0.36000
C1843       C  0.37948387  0.99883494  0.24629515     0.16400
C1844       C  0.38057478  0.99539156  0.26861404     0.22200
C1845       C  0.36151814  0.99224309  0.28104969    -0.34100
C1846       C  0.34160910  0.99323082  0.26952611     0.16300
O1847       O  0.32008923  0.99834881  0.24009403    -0.26100
C1848       C  0.30800889  0.99426832  0.25777142     0.06100
C1849       C  0.32055776  0.99085818  0.27652024    -0.31000
O1850       O  0.40089125  0.99532339  0.27609128    -0.22800
C1851       C  0.41302187  0.99839156  0.25826801    -0.02800
C1852       C  0.40058391  0.00052562  0.23923575    -0.17200
H1853       H  0.35889920  0.00330757  0.21739909     0.20800
H1854       H  0.36216617  0.98923580  0.29849408     0.19100
H1855       H  0.31494554  0.98755665  0.29297945     0.19100
H1856       H  0.40628488  0.00326436  0.22269556     0.14900
C1857       C  0.18251125  0.94588449  0.33060803     0.30400
C1858       C  0.18732071  0.96510245  0.31929856    -0.36000
C1859       C  0.20783731  0.96596240  0.30918400     0.16400
C1860       C  0.22299198  0.94927168  0.31028614     0.22200
C1861       C  0.21817052  0.92990447  0.32176495    -0.34100
C1862       C  0.19728934  0.92884707  0.33162570     0.16300
O1863       O  0.16393974  0.94160962  0.34063237    -0.26100
C1864       C  0.16646087  0.92138901  0.34808163     0.06100
C1865       C  0.18694328  0.91255281  0.34295183    -0.31000
O1866       O  0.24069545  0.95333871  0.29838265    -0.22800
C1867       C  0.23652925  0.97280217  0.28951461    -0.02800
C1868       C  0.21636728  0.98129746  0.29576450    -0.17200
H1869       H  0.17558243  0.97828231  0.31795204     0.20800
H1870       H  0.22958071  0.91638873  0.32239774     0.19100
H1871       H  0.19330307  0.89660039  0.34711111     0.19100
H1872       H  0.20867886  0.99627488  0.29037168     0.14900
C1873       C  0.22447483  0.04308094  0.20662546     0.30400
C1874       C  0.21902523  0.06391416  0.19846529    -0.36000
C1875       C  0.19908711  0.06540595  0.18687728     0.16400
C1876       C  0.18574718  0.04751906  0.18343942     0.22200
C1877       C  0.19114285  0.02686368  0.19151390    -0.34100
C1878       C  0.21078617  0.02545501  0.20320226     0.16300
O1879       O  0.24141981  0.03808433  0.21923508    -0.26100
C1880       C  0.23832118  0.01704765  0.22389629     0.06100
C1881       C  0.21953840  0.00844282  0.21434782    -0.31000
O1882       O  0.16804795  0.05224878  0.17216356    -0.22800
C1883       C  0.16972540  0.07352392  0.16826660    -0.02800
C1884       C  0.18872739  0.08271491  0.17709873    -0.17200
H1885       H  0.22933536  0.07801738  0.20134753     0.20800
H1886       H  0.18050877  0.01289882  0.18917913     0.19100
H1887       H  0.21271403  0.99226388  0.21635040     0.19100
H1888       H  0.19428966  0.09945477  0.17603481     0.14900
C1889       C  0.24774174  0.87898182  0.00570622     0.30400
C1890       C  0.23454335  0.86040927  0.00237253    -0.36000
C1891       C  0.24507403  0.84001889  0.00403226     0.16400
C1892       C  0.26700800  0.83799379  0.00903756     0.22200
C1893       C  0.28028885  0.85657227  0.01194442    -0.34100
C1894       C  0.26984237  0.87696442  0.00990655     0.16300
O1895       O  0.24124544  0.89961750  0.00524645    -0.26100
C1896       C  0.25950036  0.91102713  0.00881853     0.06100
C1897       C  0.27781007  0.89775667  0.01170242    -0.31000
O1898       O  0.27328272  0.81734903  0.01063190    -0.22800
C1899       C  0.25520558  0.80593386  0.00624527    -0.02800
C1900       C  0.23719949  0.81922670  0.00186106    -0.17200
H1901       H  0.21723587  0.86175771  0.99881681     0.20800
H1902       H  0.29756790  0.85522480  0.01563185     0.19100
H1903       H  0.29448659  0.90273502  0.01503659     0.19100
H1904       H  0.22060983  0.81425849  0.99808803     0.14900
C1905       C  0.19584363  0.99240022  0.04207840     0.30400
C1906       C  0.17847593  0.99426946  0.05710545    -0.36000
C1907       C  0.16824345  0.01486495  0.05848434     0.16400
C1908       C  0.17454616  0.03232288  0.04579470     0.22200
C1909       C  0.19189844  0.03049897  0.03089286    -0.34100
C1910       C  0.20222044  0.01005161  0.02969820     0.16300
O1911       O  0.20849222  0.97506813  0.03885355    -0.26100
C1912       C  0.22321850  0.98187017  0.02435224     0.06100
C1913       C  0.22006735  0.00348666  0.01815624    -0.31000
O1914       O  0.16360033  0.05034861  0.05047722    -0.22800
C1915       C  0.15006555  0.04450884  0.06644806    -0.02800
C1916       C  0.15224574  0.02258941  0.07213719    -0.17200
H1917       H  0.17368541  0.98081294  0.06743496     0.20800
H1918       H  0.19740560  0.04427284  0.02136079     0.19100
H1919       H  0.22993384  0.01315688  0.00716850     0.19100
H1920       H  0.14398508  0.01391637  0.08510293     0.14900
C1921       C  0.24250310  0.33966068  0.01174841     0.30400
C1922       C  0.22967607  0.35878625  0.01174765    -0.36000
C1923       C  0.24113003  0.37870386  0.01127577     0.16400
C1924       C  0.26367942  0.37973341  0.01124947     0.22200
C1925       C  0.27650253  0.36062970  0.01096192    -0.34100
C1926       C  0.26504102  0.34073358  0.01098839     0.16300
O1927       O  0.23521775  0.31930808  0.01200201    -0.26100
C1928       C  0.25332126  0.30717280  0.01100538     0.06100
C1929       C  0.27233901  0.31965145  0.01023542    -0.31000
O1930       O  0.27100070  0.40003852  0.01117555    -0.22800
C1931       C  0.25292891  0.41226478  0.01081455    -0.02800
C1932       C  0.23384479  0.39983983  0.01077905    -0.17200
H1933       H  0.21197697  0.35817735  0.01194862     0.20800
H1934       H  0.29420163  0.36123748  0.01057795     0.19100
H1935       H  0.28910392  0.31396850  0.00939875     0.19100
H1936       H  0.21707880  0.40556407  0.01063992     0.14900
C1937       C  0.20542025  0.20700265  0.04094470     0.30400
C1938       C  0.19819255  0.18536576  0.04123142    -0.36000
C1939       C  0.18536785  0.17950326  0.05913167     0.16400
C1940       C  0.17991882  0.19380621  0.07586858     0.22200
C1941       C  0.18698220  0.21579877  0.07542118    -0.34100
C1942       C  0.19989633  0.22179334  0.05724201     0.16300
O1943       O  0.21858702  0.21524170  0.02622107    -0.26100
C1944       C  0.22161888  0.23578645  0.03271978     0.06100
C1945       C  0.21023652  0.24099060  0.05192781    -0.31000
O1946       O  0.16769674  0.18435134  0.09105118    -0.22800
C1947       C  0.16536356  0.16386663  0.08362910    -0.02800
C1948       C  0.17600239  0.16008888  0.06386751    -0.17200
H1949       H  0.20254925  0.17377403  0.02846074     0.20800
H1950       H  0.18289808  0.22730192  0.08835498     0.19100
H1951       H  0.21051560  0.25616640  0.06117184     0.19100
H1952       H  0.17648178  0.14516904  0.05419864     0.14900
C1953       C  0.88215437  0.00326491  0.26114871     0.30400
C1954       C  0.86337102  0.00897670  0.27318887    -0.36000
C1955       C  0.84325113  0.00683694  0.26218175     0.16400
C1956       C  0.84163892  0.99921162  0.24087932     0.22200
C1957       C  0.86047741  0.99385673  0.22867215    -0.34100
C1958       C  0.88066152  0.99638839  0.23957806     0.16300
O1959       O  0.90255830  0.00379943  0.26837222    -0.26100
C1960       C  0.91441753  0.99756714  0.25111022     0.06100
C1961       C  0.90166743  0.99288714  0.23267255    -0.31000
O1962       O  0.82109688  0.99776312  0.23411667    -0.22800
C1963       C  0.80938802  0.00487383  0.25120853    -0.02800
C1964       C  0.82236786  0.01085010  0.26907057    -0.17200
H1965       H  0.86437280  0.01465070  0.29002384     0.20800
H1966       H  0.85946769  0.98808078  0.21186934     0.19100
H1967       H  0.90709328  0.98737407  0.21666282     0.19100
H1968       H  0.81713093  0.01682027  0.28498038     0.14900
C1969       C  0.00937892  0.97550991  0.31202029     0.30400
C1970       C  0.03027724  0.97548920  0.32149396    -0.36000
C1971       C  0.03349196  0.96111801  0.33893648     0.16400
C1972       C  0.01731372  0.94744638  0.34652941     0.22200
C1973       C  0.99610602  0.94785211  0.33735328    -0.34100
C1974       C  0.99281848  0.96244520  0.31988799     0.16300
O1975       O  0.00359843  0.98637742  0.29439956    -0.26100
C1976       C  0.98291331  0.98059881  0.29090781     0.06100
C1977       C  0.97518391  0.96583694  0.30637981    -0.31000
O1978       O  0.02477349  0.93362354  0.36137925    -0.22800
C1979       C  0.04590347  0.93879264  0.36345821    -0.02800
C1980       C  0.05209722  0.95590451  0.34999233    -0.17200
H1981       H  0.04343832  0.98537408  0.31507059     0.20800
H1982       H  0.98335061  0.93692052  0.34281867     0.19100
H1983       H  0.95938989  0.95786650  0.30683277     0.19100
H1984       H  0.06835495  0.96242736  0.34748572     0.14900
C1985       C  0.02413074  0.04541174  0.16530126     0.30400
C1986       C  0.00262450  0.04482924  0.17342103    -0.36000
C1987       C  0.99851422  0.02961467  0.19003583     0.16400
C1988       C  0.01456418  0.01609308  0.19830694     0.22200
C1989       C  0.03597519  0.01638062  0.18992035    -0.34100
C1990       C  0.04000825  0.03142602  0.17312747     0.16300
O1991       O  0.03192715  0.05947473  0.15097329    -0.26100
C1992       C  0.05304224  0.05428322  0.14933201     0.06100
C1993       C  0.05893519  0.03682579  0.16266163    -0.31000
O1994       O  0.00757381  0.00435645  0.21494818    -0.22800
C1995       C  0.98664919  0.01012778  0.21717017    -0.02800
C1996       C  0.98008288  0.02572150  0.20201832    -0.17200
H1997       H  0.99011674  0.05593302  0.16764141     0.20800
H1998       H  0.04876484  0.00605381  0.19648773     0.19100
H1999       H  0.07509010  0.03003309  0.16528171     0.19100
H2000       H  0.96436603  0.03379895  0.20076890     0.14900
C2001       C  0.61942109  0.00262846  0.76068839     0.30400
C2002       C  0.63859009  0.00276219  0.77354573    -0.36000
C2003       C  0.65852085  0.00233069  0.76202650     0.16400
C2004       C  0.65951482  0.00222983  0.73941513     0.22200
C2005       C  0.64037022  0.00170218  0.72658576    -0.34100
C2006       C  0.62047039  0.00175314  0.73809487     0.16300
O2007       O  0.59905064  0.00304610  0.76798813    -0.26100
C2008       C  0.58686389  0.00212269  0.74983283     0.06100
C2009       C  0.59935805  0.00118604  0.73076274    -0.31000
O2010       O  0.67982743  0.00254586  0.73202434    -0.22800
C2011       C  0.69209148  0.00244890  0.75011370    -0.02800
C2012       C  0.67970749  0.00216632  0.76927832    -0.17200
H2013       H  0.63800688  0.00315585  0.79127544     0.20800
H2014       H  0.64095081  0.00129341  0.70885623     0.19100
H2015       H  0.59368378  0.00039764  0.71394689     0.19100
H2016       H  0.68549698  0.00222479  0.78606638     0.14900
C2017       C  0.48753985  0.97623546  0.69718147     0.30400
C2018       C  0.46584060  0.97468203  0.68991045    -0.36000
C2019       C  0.46177663  0.95927896  0.67330030     0.16400
C2020       C  0.47786028  0.94600406  0.66453569     0.22200
C2021       C  0.49977168  0.94783752  0.67159276    -0.34100
C2022       C  0.50392850  0.96352083  0.68813994     0.16300
O2023       O  0.49449139  0.98853606  0.71356122    -0.26100
C2024       C  0.51573540  0.98402913  0.71501646     0.06100
C2025       C  0.52264361  0.96864564  0.69949402    -0.31000
O2026       O  0.46987494  0.93150214  0.65039795    -0.22800
C2027       C  0.44847933  0.93586058  0.64995805    -0.02800
C2028       C  0.44262183  0.95305801  0.66381213    -0.17200
H2029       H  0.45288002  0.98438459  0.69717786     0.20800
H2030       H  0.51253534  0.93736039  0.66511206     0.19100
H2031       H  0.53872472  0.96143062  0.69769279     0.19100
H2032       H  0.42638839  0.95926873  0.66729675     0.14900
C2033       C  0.48166830  0.24516645  0.62140479     0.30400
C2034       C  0.47601947  0.23381179  0.64050966    -0.36000
C2035       C  0.47896529  0.24516953  0.66042476     0.16400
C2036       C  0.48728165  0.26611298  0.66149746     0.22200
C2037       C  0.49241698  0.27765702  0.64236780    -0.34100
C2038       C  0.48911114  0.26644058  0.62243843     0.16300
O2039       O  0.48115193  0.23736949  0.60113464    -0.26100
C2040       C  0.48793849  0.25401550  0.58898814     0.06100
C2041       C  0.49295281  0.27257599  0.60134211    -0.31000
O2042       O  0.49037471  0.27294973  0.68187753    -0.22800
C2043       C  0.48354271  0.25634338  0.69405729    -0.02800
C2044       C  0.47610768  0.23867942  0.68157343    -0.17200
H2045       H  0.47016545  0.21713196  0.63991872     0.20800
H2046       H  0.49897240  0.29407230  0.64299679     0.19100
H2047       H  0.49922698  0.28804743  0.59563909     0.19100
H2048       H  0.47056119  0.22292774  0.68726597     0.14900
C2049       C  0.51198794  0.24122941  0.11423171     0.30400
C2050       C  0.51405940  0.22930785  0.13370943    -0.36000
C2051       C  0.51229758  0.24135399  0.15334309     0.16400
C2052       C  0.50829958  0.26355969  0.15386171     0.22200
C2053       C  0.50669537  0.27557501  0.13435503    -0.34100
C2054       C  0.50886143  0.26357493  0.11468724     0.16300
O2055       O  0.51258814  0.23316065  0.09406707    -0.26100
C2056       C  0.51017620  0.25059980  0.08136548     0.06100
C2057       C  0.50793081  0.26999050  0.09331196    -0.31000
O2058       O  0.50589232  0.27124163  0.17407544    -0.22800
C2059       C  0.50887241  0.25378390  0.18666175    -0.02800
C2060       C  0.51303855  0.23479882  0.17462493    -0.17200
H2061       H  0.51664642  0.21179695  0.13357088     0.20800
H2062       H  0.50370999  0.29302142  0.13449085     0.19100
H2063       H  0.50550536  0.28634662  0.08712019     0.19100
H2064       H  0.51536091  0.21837682  0.18068809     0.14900
C2065       C  0.32297676  0.99234554  0.97665494     0.30400
C2066       C  0.33805128  0.99484800  0.95944693    -0.36000
C2067       C  0.34693085  0.01589377  0.95694735     0.16400
C2068       C  0.34160161  0.03318830  0.97062381     0.22200
C2069       C  0.32673619  0.03065468  0.98789995    -0.34100
C2070       C  0.31766265  0.00975730  0.99018766     0.16300
O2071       O  0.31090619  0.97484252  0.98054541    -0.26100
C2072       C  0.29764872  0.98125364  0.99669738     0.06100
C2073       C  0.30124943  0.00277250  0.00335462    -0.31000
O2074       O  0.35042733  0.05177999  0.96434966    -0.22800
C2075       C  0.36155852  0.04643868  0.94634128    -0.02800
C2076       C  0.36000496  0.02429542  0.94097655    -0.17200
H2077       H  0.34175028  0.98164489  0.94815133     0.20800
H2078       H  0.32176231  0.04427921  0.99814672     0.19100
H2079       H  0.29209155  0.01231639  0.01521924     0.19100
H2080       H  0.36661880  0.01587854  0.92678422     0.14900
C2081       C  0.30295282  0.20930132  0.97690086     0.30400
C2082       C  0.31312885  0.18882884  0.97720096    -0.36000
C2083       C  0.32303260  0.18207225  0.95764911     0.16400
C2084       C  0.32292515  0.19442292  0.93882884     0.22200
C2085       C  0.31295034  0.21525449  0.93862972    -0.34100
C2086       C  0.30312127  0.22219800  0.95843858     0.16300
O2087       O  0.29150718  0.21788217  0.99304804    -0.26100
C2088       C  0.28446456  0.23683531  0.98523910     0.06100
C2089       C  0.29126420  0.24055790  0.96376122    -0.31000
O2090       O  0.33295116  0.18436172  0.92228658    -0.22800
C2091       C  0.33957634  0.16546026  0.93088003    -0.02800
C2092       C  0.33386599  0.16332378  0.95280162    -0.17200
H2093       H  0.31297625  0.17864672  0.99163657     0.20800
H2094       H  0.31262097  0.22519486  0.92403477     0.19100
H2095       H  0.28686547  0.25400596  0.95320557     0.19100
H2096       H  0.33729976  0.14983073  0.96366537     0.14900
C2097       C  0.48960789  0.18771669  0.98666053     0.30400
C2098       C  0.48808302  0.17854858  0.96554240    -0.36000
C2099       C  0.47256540  0.16190984  0.96272164     0.16400
C2100       C  0.45937745  0.15473470  0.97952406     0.22200
C2101       C  0.46140146  0.16345807  0.00087760    -0.34100
C2102       C  0.47697107  0.18016619  0.00371957     0.16300
O2103       O  0.50109937  0.20513725  0.99214784    -0.26100
C2104       C  0.49609970  0.20873971  0.01310614     0.06100
C2105       C  0.48129759  0.19356516  0.02128970    -0.31000
O2106       O  0.44401912  0.14114466  0.97252467    -0.22800
C2107       C  0.44757481  0.13946007  0.95101106    -0.02800
C2108       C  0.46530202  0.15184780  0.94408923    -0.17200
H2109       H  0.49743488  0.18485380  0.95194239     0.20800
H2110       H  0.45070545  0.15847686  0.01403545     0.19100
H2111       H  0.47362096  0.19345321  0.03726874     0.19100
H2112       H  0.47083319  0.15450539  0.92746859     0.14900
C2113       C  0.30223761  0.06715193  0.82476249     0.30400
C2114       C  0.28089484  0.06721290  0.81571411    -0.36000
C2115       C  0.27451949  0.04811302  0.80413103     0.16400
C2116       C  0.28840222  0.03048281  0.80150382     0.22200
C2117       C  0.30942816  0.03033859  0.81061816    -0.34100
C2118       C  0.31562046  0.04914172  0.82224795     0.16300
O2119       O  0.31179008  0.08297002  0.83641278    -0.26100
C2120       C  0.33144089  0.07471940  0.84139770     0.06100
C2121       C  0.33453017  0.05374916  0.83297096    -0.31000
O2122       O  0.27991335  0.01478597  0.78933515    -0.22800
C2123       C  0.26005743  0.02200692  0.78415151    -0.02800
C2124       C  0.25564878  0.04269926  0.79299420    -0.17200
H2125       H  0.27008083  0.08112415  0.81752072     0.20800
H2126       H  0.32031589  0.01649843  0.80864046     0.19100
H2127       H  0.34869664  0.04325667  0.83471429     0.19100
H2128       H  0.24118505  0.05264482  0.79068733     0.14900
C2129       C  0.50583131  0.03367207  0.81531187     0.30400
C2130       C  0.50324479  0.04958525  0.83192457    -0.36000
C2131       C  0.48261153  0.05038593  0.84214327     0.16400
C2132       C  0.46583221  0.03624979  0.83666891     0.22200
C2133       C  0.46848398  0.02026684  0.82030187    -0.34100
C2134       C  0.48887340  0.01975801  0.80985554     0.16300
O2135       O  0.52295947  0.03118071  0.80221191    -0.26100
C2136       C  0.51667840  0.01558189  0.78815158     0.06100
C2137       C  0.49566249  0.00795343  0.79221211    -0.31000
O2138       O  0.44733332  0.04110324  0.84670498    -0.22800
C2139       C  0.45216339  0.05869133  0.85872743    -0.02800
C2140       C  0.47393369  0.06512746  0.85665088    -0.17200
H2141       H  0.51601835  0.06122995  0.83584085     0.20800
H2142       H  0.45516522  0.00970216  0.81524395     0.19100
H2143       H  0.48638426  0.99597691  0.78290657     0.19100
H2144       H  0.48179903  0.07940489  0.86369061     0.14900
C2145       C  0.45844305  0.20768751  0.79475029     0.30400
C2146       C  0.46017333  0.19704996  0.81486549    -0.36000
C2147       C  0.44162710  0.18571447  0.82173385     0.16400
C2148       C  0.42238621  0.18494060  0.80988040     0.22200
C2149       C  0.42064105  0.19569780  0.78953024    -0.34100
C2150       C  0.43949826  0.20689493  0.78240305     0.16300
O2151       O  0.47395840  0.21926288  0.78556624    -0.26100
C2152       C  0.46521598  0.22590971  0.76680622     0.06100
C2153       C  0.44374655  0.21867232  0.76381445    -0.31000
O2154       O  0.40735196  0.17264082  0.81947894    -0.22800
C2155       C  0.41737201  0.16546022  0.83754837    -0.02800
C2156       C  0.43863900  0.17320202  0.83967283    -0.17200
H2157       H  0.47511682  0.19739743  0.82443732     0.20800
H2158       H  0.40580200  0.19511758  0.77982120     0.19100
H2159       H  0.43275668  0.22212567  0.75033468     0.19100
H2160       H  0.45045592  0.16963793  0.85241776     0.14900
C2161       C  0.71853201  0.28548163  0.94796736     0.30400
C2162       C  0.71699189  0.30591448  0.93802287    -0.36000
C2163       C  0.69684854  0.31089298  0.92843525     0.16400
C2164       C  0.67925412  0.29678356  0.92848386     0.22200
C2165       C  0.68090787  0.27603300  0.93822776    -0.34100
C2166       C  0.70123073  0.27099656  0.94791965     0.16300
O2167       O  0.73544810  0.27838266  0.95915705    -0.26100
C2168       C  0.72922279  0.25893567  0.96633055     0.06100
C2169       C  0.70808100  0.25330682  0.95975032    -0.31000
O2170       O  0.66154673  0.30564514  0.91969229    -0.22800
C2171       C  0.66809112  0.32560216  0.91400811    -0.02800
C2172       C  0.68989878  0.32962909  0.91900306    -0.17200
H2173       H  0.73039862  0.31746251  0.93838280     0.20800
H2174       H  0.66716838  0.26491040  0.93879966     0.19100
H2175       H  0.69882170  0.23887546  0.96394796     0.19100
H2176       H  0.69908583  0.34456130  0.91676380     0.14900
C2177       C  0.55120085  0.33940831  0.97109419     0.30400
C2178       C  0.54857716  0.33345447  0.99323627    -0.36000
C2179       C  0.53745815  0.31365765  0.99699917     0.16400
C2180       C  0.52950250  0.30075004  0.98010741     0.22200
C2181       C  0.53189176  0.30676577  0.95815010    -0.34100
C2182       C  0.54298022  0.32637723  0.95443171     0.16300
O2183       O  0.56290683  0.35595140  0.96353988    -0.26100
C2184       C  0.56203953  0.35334813  0.94179579     0.06100
C2185       C  0.54980285  0.33525957  0.93533939    -0.31000
O2186       O  0.52086376  0.28236339  0.98700730    -0.22800
C2187       C  0.52309852  0.28333777  0.00868990    -0.02800
C2188       C  0.53326701  0.30250522  0.01592070    -0.17200
H2189       H  0.55544377  0.34309503  0.00651203     0.20800
H2190       H  0.52623731  0.29641817  0.94482668     0.19100
H2191       H  0.54765041  0.32867744  0.91893725     0.19100
H2192       H  0.53757942  0.30715497  0.03254014     0.14900
C2193       C  0.70628064  0.42874497  0.82253886     0.30400
C2194       C  0.72836923  0.43507787  0.82111836    -0.36000
C2195       C  0.73384966  0.44814258  0.80309241     0.16400
C2196       C  0.71851156  0.45450941  0.78775905     0.22200
C2197       C  0.69666087  0.44787788  0.78894771    -0.34100
C2198       C  0.69124972  0.43483998  0.80680241     0.16300
O2199       O  0.69712007  0.41788043  0.83870591    -0.26100
C2200       C  0.67604912  0.41696905  0.83306978     0.06100
C2201       C  0.67150921  0.42712590  0.81330901    -0.28600
O2202       O  0.72655216  0.46790348  0.77317470    -0.22800
C2203       C  0.74742778  0.47008761  0.77888762    -0.02800
C2204       C  0.75307059  0.45804420  0.79734678    -0.17200
H2205       H  0.74025506  0.43069992  0.83352121     0.20800
H2206       H  0.68454912  0.45312852  0.77711765     0.19100
H2207       H  0.65578233  0.42939185  0.80543181     0.19100
H2208       H  0.76865789  0.45747994  0.80578744     0.14900
C2209       C  0.54433793  0.46818132  0.83883058     0.30400
C2210       C  0.54221069  0.48504013  0.82360275    -0.36000
C2211       C  0.52128816  0.48820424  0.81478867     0.16400
C2212       C  0.50342477  0.47571541  0.82044902     0.22200
C2213       C  0.50545727  0.45905754  0.83619972    -0.34100
C2214       C  0.52655251  0.45587157  0.84513323     0.16300
O2215       O  0.56296053  0.46085270  0.84687774    -0.26100
C2216       C  0.55720543  0.44389422  0.85904163     0.06100
C2217       C  0.53471464  0.43999769  0.85863580    -0.31000
O2218       O  0.48607956  0.47988972  0.80798836    -0.22800
C2219       C  0.49309835  0.49525832  0.79428368    -0.02800
C2220       C  0.51478709  0.50108328  0.79801493    -0.17200
H2221       H  0.55622265  0.49424484  0.81801976     0.20800
H2222       H  0.49186241  0.44855003  0.84030644     0.19100
H2223       H  0.52598774  0.42636173  0.86564095     0.19100
H2224       H  0.52485304  0.51206076  0.78853864     0.14900
C2225       C  0.56929396  0.32465511  0.79562551     0.30400
C2226       C  0.55913707  0.32311398  0.77487200    -0.36000
C2227       C  0.54634830  0.30430679  0.77105960     0.16400
C2228       C  0.54388439  0.28829847  0.78667135     0.22200
C2229       C  0.55439307  0.28957147  0.80702672    -0.34100
C2230       C  0.56703968  0.30821757  0.81080149     0.16300
O2231       O  0.58009509  0.34165314  0.80371817    -0.26100
C2232       C  0.58482305  0.33580455  0.82423010     0.06100
C2233       C  0.57725600  0.31509430  0.82937371    -0.31000
O2234       O  0.52978954  0.27316824  0.78078672    -0.22800
C2235       C  0.52310672  0.27920356  0.76100253    -0.02800
C2236       C  0.53298069  0.29842237  0.75390039    -0.17200
H2237       H  0.56030411  0.33607671  0.76296959     0.20800
H2238       H  0.55203364  0.27730613  0.81948659     0.19100
H2239       H  0.57794201  0.30688157  0.84501949     0.19100
H2240       H  0.52987008  0.30730492  0.73893777     0.14900
C2241       C  0.15906671  0.50190622  0.25808495     0.30400
C2242       C  0.14014850  0.50248946  0.27118056    -0.36000
C2243       C  0.12010476  0.50410652  0.25993406     0.16400
C2244       C  0.11876222  0.50468296  0.23734546     0.22200
C2245       C  0.13766015  0.50455709  0.22428762    -0.34100
C2246       C  0.15768178  0.50334877  0.23554396     0.16300
O2247       O  0.17947901  0.49989872  0.26505902    -0.26100
C2248       C  0.19131746  0.50054450  0.24675244     0.06100
C2249       C  0.17861163  0.50276020  0.22792943    -0.31000
O2250       O  0.09836475  0.50498255  0.23019904    -0.22800
C2251       C  0.08641952  0.50494252  0.24843762    -0.02800
C2252       C  0.09907475  0.50460510  0.26745637    -0.17200
H2253       H  0.14098193  0.50153852  0.28887333     0.20800
H2254       H  0.13680581  0.50514917  0.20657417     0.19100
H2255       H  0.18402488  0.50327694  0.21105070     0.19100
H2256       H  0.09355369  0.50407079  0.28429615     0.14900
C2257       C  0.76212539  0.65679877  0.00746220     0.30400
C2258       C  0.77450846  0.63747181  0.00609460    -0.36000
C2259       C  0.76273015  0.61777999  0.00660604     0.16400
C2260       C  0.74021435  0.61700526  0.00792304     0.22200
C2261       C  0.72780986  0.63640079  0.00969399    -0.34100
C2262       C  0.73966478  0.65616685  0.00961945     0.16300
O2263       O  0.76985497  0.67696224  0.00695924    -0.26100
C2264       C  0.75219453  0.68955913  0.00923491     0.06100
C2265       C  0.73294806  0.67748959  0.01111552    -0.31000
O2266       O  0.73263665  0.59668383  0.00751711    -0.22800
C2267       C  0.75062053  0.58431327  0.00629486    -0.02800
C2268       C  0.76974668  0.59664156  0.00580247    -0.17200
H2269       H  0.79216502  0.63776214  0.00470849     0.20800
H2270       H  0.71015272  0.63611324  0.01104125     0.19100
H2271       H  0.71639490  0.68357810  0.01283125     0.19100
H2272       H  0.78644970  0.59081621  0.00471077     0.14900
C2273       C  0.70211304  0.48368283  0.97438513     0.30400
C2274       C  0.69779192  0.46168131  0.96981849    -0.36000
C2275       C  0.67809672  0.45720239  0.95904350     0.16400
C2276       C  0.66342682  0.47318515  0.95292742     0.22200
C2277       C  0.66784254  0.49548535  0.95750866    -0.34100
C2278       C  0.68776761  0.50005043  0.96849957     0.16300
O2279       O  0.71975976  0.49110594  0.98422209    -0.26100
C2280       C  0.71709170  0.51266354  0.98493091     0.06100
C2281       C  0.69741132  0.51932501  0.97529500    -0.31000
O2282       O  0.64659900  0.46497325  0.94171433    -0.22800
C2283       C  0.65075925  0.44351254  0.94084200    -0.02800
C2284       C  0.67011940  0.43794467  0.95139825    -0.17200
H2285       H  0.70922624  0.44888248  0.97414118     0.20800
H2286       H  0.65674684  0.50834034  0.95256641     0.19100
H2287       H  0.69120371  0.53578948  0.97352472     0.19100
H2288       H  0.67786225  0.42203727  0.95219942     0.14900
C2289       C  0.96886496  0.32743729  0.03625507     0.30400
C2290       C  0.98337230  0.30967663  0.03511771    -0.36000
C2291       C  0.98579766  0.29976304  0.01444471     0.16400
C2292       C  0.97499729  0.30698513  0.99596829     0.22200
C2293       C  0.96052368  0.32488716  0.99708643    -0.34100
C2294       C  0.95781461  0.33463054  0.01791289     0.16300
O2295       O  0.96283825  0.33780622  0.05431214    -0.26100
C2296       C  0.94763067  0.35185964  0.04761743     0.06100
C2297       C  0.94382834  0.35063291  0.02507312    -0.31000
O2298       O  0.97869240  0.29434047  0.97863826    -0.22800
C2299       C  0.99186763  0.27874219  0.98623224    -0.02800
C2300       C  0.99684458  0.28137136  0.00837730    -0.17200
H2301       H  0.99149455  0.30342705  0.04955717     0.20800
H2302       H  0.95134344  0.33025748  0.98292269     0.19100
H2303       H  0.93175588  0.35942376  0.01557714     0.19100
H2304       H  0.00651066  0.27075332  0.01870428     0.14900
C2305       C  0.95581954  0.32653498  0.18746209     0.30400
C2306       C  0.97657424  0.31968348  0.19428567    -0.36000
C2307       C  0.97744557  0.30837952  0.21408523     0.16400
C2308       C  0.95919582  0.30419842  0.22664524     0.22200
C2309       C  0.93826278  0.31123340  0.21981479    -0.34100
C2310       C  0.93732982  0.32241008  0.19968293     0.16300
O2311       O  0.95148861  0.33671541  0.16906577    -0.26100
C2312       C  0.92987192  0.33919065  0.16911247     0.06100
C2313       C  0.92006973  0.33061205  0.18782643    -0.31000
O2314       O  0.96382021  0.29175501  0.24374434    -0.22800
C2315       C  0.98526724  0.28803424  0.24191587    -0.02800
C2316       C  0.99447783  0.29797811  0.22377621    -0.17200
H2317       H  0.99102636  0.32240710  0.18443519     0.20800
H2318       H  0.92367927  0.30761617  0.22914500     0.19100
H2319       H  0.90288573  0.33051973  0.19207796     0.19100
H2320       H  0.01110102  0.29651695  0.21781192     0.14900
C2321       C  0.96851942  0.46283873  0.16133666     0.30400
C2322       C  0.97017285  0.47958493  0.17702818    -0.36000
C2323       C  0.99031165  0.48134473  0.18786685     0.16400
C2324       C  0.00786675  0.46776650  0.18353981     0.22200
C2325       C  0.00623786  0.45097147  0.16770113    -0.34100
C2326       C  0.98593000  0.44909547  0.15690535     0.16300
O2327       O  0.95053627  0.45713093  0.15080637    -0.26100
C2328       C  0.95638700  0.43950171  0.13935117     0.06100
C2329       C  0.97827234  0.43377121  0.14243076    -0.31000
O2330       O  0.02468826  0.47167954  0.19673263    -0.22800
C2331       C  0.01760771  0.48788328  0.20965339    -0.02800
C2332       C  0.99637978  0.49446767  0.20482573    -0.17200
H2333       H  0.95640963  0.48996219  0.18115023     0.20800
H2334       H  0.01953776  0.43968109  0.16460559     0.19100
H2335       H  0.98683230  0.41956384  0.13610898     0.19100
H2336       H  0.98653373  0.50664226  0.21321396     0.14900
C2337       C  0.80900059  0.27304854  0.04248736     0.30400
C2338       C  0.81772401  0.27854998  0.06322881    -0.36000
C2339       C  0.82959157  0.29823145  0.06447507     0.16400
C2340       C  0.83287005  0.31126941  0.04642584     0.22200
C2341       C  0.82433138  0.30575359  0.02579121    -0.34100
C2342       C  0.81223150  0.28639874  0.02465713     0.16300
O2343       O  0.79589358  0.25643119  0.03784069    -0.26100
C2344       C  0.79062539  0.25940780  0.01684447     0.06100
C2345       C  0.80034925  0.27777047  0.00786609    -0.31000
O2346       O  0.84384290  0.32915012  0.05117187    -0.22800
C2347       C  0.84764164  0.32784604  0.07260561    -0.02800
C2348       C  0.83918931  0.30889961  0.08185529    -0.17200
H2349       H  0.81484079  0.26859057  0.07750911     0.20800
H2350       H  0.82637992  0.31623056  0.01173273     0.19100
H2351       H  0.79809896  0.28437661  0.99159803     0.19100
H2352       H  0.83994310  0.30381519  0.09879576     0.14900
C2353       C  0.80786859  0.48651868  0.02494166     0.30400
C2354       C  0.81667649  0.46535737  0.02436442    -0.36000
C2355       C  0.83465866  0.46157123  0.03809900     0.16400
C2356       C  0.84327350  0.47741162  0.05183706     0.22200
C2357       C  0.83470156  0.49884619  0.05206522    -0.34100
C2358       C  0.81675821  0.50273839  0.03804674     0.16300
O2359       O  0.79036044  0.49306509  0.01422782    -0.26100
C2360       C  0.78794003  0.51390610  0.02016499     0.06100
C2361       C  0.80398636  0.52093086  0.03493753    -0.31000
O2362       O  0.85862925  0.46950661  0.06495554    -0.22800
C2363       C  0.86006850  0.44844064  0.05920051    -0.02800
C2364       C  0.84565046  0.44273846  0.04242442    -0.17200
H2365       H  0.80954986  0.45249690  0.01432836     0.20800
H2366       H  0.84111093  0.51140992  0.06292685     0.19100
H2367       H  0.80551493  0.53679125  0.04280686     0.19100
H2368       H  0.84255422  0.42663740  0.03557408     0.14900
C2369       C  0.80938850  0.42262871  0.18076283     0.30400
C2370       C  0.78757247  0.42288201  0.18854174    -0.36000
C2371       C  0.78160328  0.44086588  0.20201518     0.16400
C2372       C  0.79631514  0.45709098  0.20754425     0.22200
C2373       C  0.81788097  0.45680491  0.19991852    -0.34100
C2374       C  0.82366382  0.43920970  0.18635660     0.16300
O2375       O  0.81844742  0.40818040  0.16711977    -0.26100
C2376       C  0.83864295  0.41592205  0.16393617     0.06100
C2377       C  0.84264548  0.43512383  0.17557333    -0.31000
O2378       O  0.78776924  0.47234294  0.22018679    -0.22800
C2379       C  0.76709510  0.46624820  0.22295314    -0.02800
C2380       C  0.76219109  0.44668225  0.21197105    -0.17200
H2381       H  0.77599717  0.41021274  0.18409213     0.20800
H2382       H  0.82932845  0.46971729  0.20400681     0.19100
H2383       H  0.85733814  0.44499893  0.17561081     0.19100
H2384       H  0.74681719  0.43792831  0.21165661     0.14900
C2385       C  0.95544710  0.71739592  0.28635689     0.30400
C2386       C  0.94716605  0.71535967  0.30756097    -0.36000
C2387       C  0.93623059  0.69590972  0.31198332     0.16400
C2388       C  0.93341860  0.67945381  0.29661435     0.22200
C2389       C  0.94157279  0.68161185  0.27511674    -0.34100
C2390       C  0.95271091  0.70122007  0.27066002     0.16300
O2391       O  0.96736727  0.73372820  0.27945470    -0.26100
C2392       C  0.97245410  0.72825372  0.25897824     0.06100
C2393       C  0.96367295  0.70819998  0.25241205    -0.31000
O2394       O  0.92347318  0.66221491  0.30494020    -0.22800
C2395       C  0.91997296  0.66791702  0.32582632    -0.02800
C2396       C  0.92757003  0.68869563  0.33101187    -0.17200
H2397       H  0.94966027  0.72787407  0.31999039     0.20800
H2398       H  0.93987688  0.66872031  0.26295356     0.19100
H2399       H  0.96580933  0.69968702  0.23692192     0.19100
H2400       H  0.92728707  0.69705448  0.34674325     0.14900
C2401       C  0.95370374  0.65590612  0.47576872     0.30400
C2402       C  0.95438399  0.66210958  0.49813545    -0.36000
C2403       C  0.96796858  0.68001080  0.50356066     0.16400
C2404       C  0.97997487  0.69090311  0.48795520     0.22200
C2405       C  0.97957410  0.68453341  0.46582726    -0.34100
C2406       C  0.96602077  0.66685131  0.46044746     0.16300
O2407       O  0.94028862  0.64147253  0.46653697    -0.26100
C2408       C  0.94421544  0.64326440  0.44509197     0.06100
C2409       C  0.96005257  0.65880562  0.44046778    -0.31000
O2410       O  0.98984447  0.70837248  0.49590304    -0.22800
C2411       C  0.98445616  0.70881642  0.51703390    -0.02800
C2412       C  0.97092656  0.69144167  0.52284827    -0.17200
H2413       H  0.94420934  0.65426955  0.51024561     0.20800
H2414       H  0.98835093  0.69352996  0.45343289     0.19100
H2415       H  0.96512205  0.66457713  0.42453235     0.19100
H2416       H  0.96328619  0.68850969  0.53854339     0.14900
C2417       C  0.97461131  0.55115184  0.33619959     0.30400
C2418       C  0.99691863  0.54741092  0.33145331    -0.36000
C2419       C  0.00139323  0.53619248  0.31163954     0.16400
C2420       C  0.98495648  0.52919312  0.29770888     0.22200
C2421       C  0.96288624  0.53289942  0.30238694    -0.34100
C2422       C  0.95848664  0.54407879  0.32194792     0.16300
O2423       O  0.96649032  0.56247348  0.35296383    -0.26100
C2424       C  0.94496401  0.56252455  0.34918036     0.06100
C2425       C  0.93919257  0.55136924  0.33010597    -0.31000
O2426       O  0.99243830  0.51976211  0.27982465    -0.22800
C2427       C  0.01405099  0.52056440  0.28200838    -0.02800
C2428       C  0.02070893  0.53061252  0.30155300    -0.17200
H2429       H  0.00983582  0.55328459  0.34213455     0.20800
H2430       H  0.95001286  0.52786849  0.29122061     0.19100
H2431       H  0.92312504  0.54983103  0.32273609     0.19100
H2432       H  0.03721372  0.53373362  0.30721824     0.14900
C2433       C  0.83141375  0.54673217  0.45922140     0.30400
C2434       C  0.81140409  0.54500647  0.47005121    -0.36000
C2435       C  0.80470659  0.52390384  0.47528656     0.16400
C2436       C  0.81675685  0.50543037  0.47042063     0.22200
C2437       C  0.83717832  0.50719024  0.45964160    -0.34100
C2438       C  0.84398186  0.52860017  0.45425838     0.16300
O2439       O  0.83927243  0.56484982  0.45102364    -0.26100
C2440       C  0.85737483  0.55872306  0.44066179     0.06100
C2441       C  0.86138058  0.53626748  0.44224581    -0.31000
O2442       O  0.80643860  0.48724638  0.47626324    -0.22800
C2443       C  0.78764521  0.49448879  0.48492324    -0.02800
C2444       C  0.78589494  0.51713065  0.48462919    -0.17200
H2445       H  0.80130251  0.55917456  0.47343993     0.20800
H2446       H  0.84670762  0.49292478  0.45517402     0.19100
H2447       H  0.87404450  0.52680939  0.43418258     0.19100
H2448       H  0.77242064  0.52723887  0.49020756     0.14900
C2449       C  0.82689963  0.70796861  0.42668706     0.30400
C2450       C  0.82615803  0.72923393  0.43571183    -0.36000
C2451       C  0.80679698  0.73496769  0.44682074     0.16400
C2452       C  0.78949172  0.72065077  0.44879758     0.22200
C2453       C  0.79000690  0.69972205  0.43934470    -0.34100
C2454       C  0.80927787  0.69401291  0.42838737     0.16300
O2455       O  0.84404704  0.69834574  0.41759577    -0.26100
C2456       C  0.83720904  0.67803561  0.41344003     0.06100
C2457       C  0.81565136  0.67452006  0.41965301    -0.31000
O2458       O  0.77404570  0.72819490  0.46176526    -0.22800
C2459       C  0.78122068  0.74776096  0.46809325    -0.02800
C2460       C  0.80147216  0.75304501  0.45914703    -0.17200
H2461       H  0.84008176  0.74012821  0.43505533     0.20800
H2462       H  0.77670762  0.68824515  0.44140068     0.19100
H2463       H  0.80643434  0.65942398  0.41897656     0.19100
H2464       H  0.81143275  0.76730887  0.46249987     0.14900
C2465       C  0.78905779  0.54443239  0.28582240     0.30400
C2466       C  0.80962547  0.55439979  0.28704207    -0.36000
C2467       C  0.81391934  0.56653903  0.30609646     0.16400
C2468       C  0.79903450  0.56880704  0.32294733     0.22200
C2469       C  0.77813203  0.55915178  0.32151522    -0.34100
C2470       C  0.77378774  0.54691478  0.30230658     0.16300
O2471       O  0.78258270  0.53090922  0.27025563    -0.26100
C2472       C  0.76275354  0.52465104  0.27651378     0.06100
C2473       C  0.75624669  0.53422730  0.29630162    -0.31000
O2474       O  0.80737253  0.57945213  0.34001104    -0.22800
C2475       C  0.82776596  0.58409467  0.33381231    -0.02800
C2476       C  0.83261013  0.57654183  0.31282593    -0.17200
H2477       H  0.82179789  0.55211456  0.27434986     0.20800
H2478       H  0.76642406  0.56039826  0.33476292     0.19100
H2479       H  0.74139606  0.53131208  0.30545215     0.19100
H2480       H  0.84804972  0.57736423  0.30420105     0.14900
C2481       C  0.51033886  0.53682177  0.69154610     0.30400
C2482       C  0.51297626  0.54770521  0.67135273    -0.36000
C2483       C  0.53466494  0.55329885  0.66562504     0.16400
C2484       C  0.55226186  0.54851745  0.67899510     0.22200
C2485       C  0.54969512  0.53744043  0.69871641    -0.34100
C2486       C  0.52831188  0.53189258  0.70430491     0.16300
O2487       O  0.49167823  0.53126074  0.70118799    -0.26100
C2488       C  0.49812175  0.52266136  0.72023299     0.06100
C2489       C  0.52071586  0.52261540  0.72278046    -0.31000
O2490       O  0.57074309  0.55673213  0.67191780    -0.22800
C2491       C  0.56535704  0.56679955  0.65348754    -0.02800
C2492       C  0.54307315  0.56513229  0.64853734    -0.17200
H2493       H  0.49912309  0.55214199  0.66123758     0.20800
H2494       H  0.56342262  0.53409382  0.70943072     0.19100
H2495       H  0.53023900  0.51726757  0.73674560     0.19100
H2496       H  0.53421888  0.57273480  0.63523312     0.14900
C2497       C  0.72096126  0.71671191  0.54400491     0.30400
C2498       C  0.71864845  0.69481925  0.55006183    -0.36000
C2499       C  0.70173487  0.69030170  0.56472953     0.16400
C2500       C  0.68780818  0.70617813  0.57282880     0.22200
C2501       C  0.69030050  0.72829020  0.56691648    -0.34100
C2502       C  0.70746446  0.73288796  0.55225977     0.16300
O2503       O  0.73530523  0.72416070  0.52992839    -0.26100
C2504       C  0.73130838  0.74550414  0.52907635     0.06100
C2505       C  0.71416561  0.75201111  0.54274477    -0.31000
O2506       O  0.67238684  0.69788144  0.58548413    -0.22800
C2507       C  0.67672860  0.67648446  0.58556173    -0.02800
C2508       C  0.69486811  0.67093007  0.57298240    -0.17200
H2509       H  0.72913653  0.68209959  0.54348299     0.20800
H2510       H  0.67943393  0.74091966  0.57301525     0.19100
H2511       H  0.70733031  0.76821424  0.54488732     0.19100
H2512       H  0.70153049  0.65482288  0.56972889     0.14900
C2513       C  0.68825100  0.50252249  0.53555306     0.30400
C2514       C  0.67230104  0.50506276  0.55211866    -0.36000
C2515       C  0.66260114  0.52596957  0.55403439     0.16400
C2516       C  0.66829112  0.54303479  0.54053296     0.22200
C2517       C  0.68374754  0.54037211  0.52384043    -0.34100
C2518       C  0.69343728  0.51971932  0.52204758     0.16300
O2519       O  0.70115801  0.48533497  0.53218144    -0.26100
C2520       C  0.71471296  0.49184538  0.51637358     0.06100
C2521       C  0.71049182  0.51302892  0.50949649    -0.31000
O2522       O  0.65978214  0.56183769  0.54683371    -0.22800
C2523       C  0.64798599  0.55696721  0.56437753    -0.02800
C2524       C  0.64903688  0.53483100  0.56967102    -0.17200
H2525       H  0.66862007  0.49208347  0.56346667     0.20800
H2526       H  0.68889266  0.55391812  0.51379884     0.19100
H2527       H  0.71955301  0.52259600  0.49775157     0.19100
H2528       H  0.64262930  0.52694848  0.58411842     0.14900
C2529       C  0.70042021  0.57199155  0.69713162     0.30400
C2530       C  0.70326816  0.56140591  0.71716562    -0.36000
C2531       C  0.72368902  0.55165169  0.72054225     0.16400
C2532       C  0.74045952  0.55233539  0.70543630     0.22200
C2533       C  0.73769345  0.56328606  0.68538735    -0.34100
C2534       C  0.71702807  0.57290494  0.68185356     0.16300
O2535       O  0.68200600  0.58062740  0.69004725    -0.26100
C2536       C  0.68668084  0.58726363  0.66990193     0.06100
C2537       C  0.70828995  0.58296806  0.66389569    -0.31000
O2538       O  0.75747694  0.54026855  0.71138067    -0.22800
C2539       C  0.75128205  0.53177419  0.73044583    -0.02800
C2540       C  0.73051746  0.53848155  0.73690328    -0.17200
H2541       H  0.69009711  0.56000237  0.72891700     0.20800
H2542       H  0.75037226  0.56344215  0.67302297     0.19100
H2543       H  0.71611174  0.58601878  0.64831158     0.19100
H2544       H  0.72125390  0.53333408  0.75106787     0.14900
C2545       C  0.55441180  0.66428764  0.53540444     0.30400
C2546       C  0.54632569  0.66625796  0.51372204    -0.36000
C2547       C  0.53740225  0.68682845  0.50811226     0.16400
C2548       C  0.53642859  0.70390508  0.52301549     0.22200
C2549       C  0.54437247  0.70195591  0.54439157    -0.34100
C2550       C  0.55332555  0.68173775  0.54983792     0.16300
O2551       O  0.56461683  0.64722451  0.54412754    -0.26100
C2552       C  0.57005523  0.65415669  0.56428448     0.06100
C2553       C  0.56333430  0.67544820  0.56856148    -0.31000
O2554       O  0.52788314  0.72170783  0.51477154    -0.22800
C2555       C  0.52322524  0.71644743  0.49411161    -0.02800
C2556       C  0.52880992  0.69484663  0.48886526    -0.17200
H2557       H  0.54733963  0.65293005  0.50198330     0.20800
H2558       H  0.54397800  0.71550831  0.55591854     0.19100
H2559       H  0.56621148  0.68523401  0.58316853     0.19100
H2560       H  0.52685392  0.68639079  0.47332111     0.14900
C2561       C  0.58064472  0.69793620  0.69553482     0.30400
C2562       C  0.56944939  0.71771535  0.69858910    -0.36000
C2563       C  0.55898605  0.72051276  0.71884603     0.16400
C2564       C  0.55958466  0.70508707  0.73522326     0.22200
C2565       C  0.57108550  0.68534809  0.73226792    -0.34100
C2566       C  0.58142893  0.68243688  0.71184196     0.16300
O2567       O  0.58988074  0.69120564  0.67714015    -0.26100
C2568       C  0.59678680  0.67111404  0.68164016     0.06100
C2569       C  0.59207160  0.66482365  0.70304000    -0.31000
O2570       O  0.54713618  0.71052964  0.75218153    -0.22800
C2571       C  0.53843692  0.72962863  0.74641948    -0.02800
C2572       C  0.54537289  0.73659652  0.72592050    -0.17200
H2573       H  0.56816097  0.72969173  0.68569084     0.20800
H2574       H  0.57118601  0.67276836  0.74463149     0.19100
H2575       H  0.59501776  0.64914659  0.71059504     0.19100
H2576       H  0.54028498  0.75100029  0.71705713     0.14900
loop_ 
_geom_bond_atom_site_label_1 
_geom_bond_atom_site_label_2 
_geom_bond_distance 
_geom_bond_site_symmetry_2 
_ccdc_geom_bond_type 
O1           C17   1.275       .  A
O1           Zn7   2.034       .  S
C2           O18   1.275       .  A
C2           O15   1.277       .  A
C2         C2507   1.477       .  S
O3           C16   1.279       .  A
O3          Cd10   2.116       .  S
O4           C22   1.275       .  A
O4          Cd13   2.066       .  S
O5           C19   1.274       .  A
O5           Cd9   2.069       .  S
O6           C17   1.274       .  A
O6           Cd9   2.071       .  S
Zn7          O18   2.036       .  S
Zn7          O20   2.003       .  S
Zn7          O12   1.942       .  S
O8           C19   1.276       .  A
O8          Cd13   2.089       .  S
Cd9          O11   2.054       .  S
Cd9          O12   1.988       .  S
Cd10         O14   2.113       .  S
Cd10         O23   2.111       .  S
Cd10         O12   2.030       .  S
O11          C21   1.274       .  A
O12         Cd13   1.998       .  S
Cd13         O15   2.078       .  S
O14          C21   1.279       .  A
C16          O20   1.274       .  A
C16        C2552   1.480       .  S
C17        C2568   1.474       .  S
C19        C2536   1.474       .  S
C21        C2491   1.473       .  S
C22          O23   1.280       .  A
C22        C2523   1.471       .  S
O24          C40   1.275       .  A
O24         Zn30   2.022       .  S
C25          O41   1.274       .  A
C25          O38   1.274       .  A
C25        C2395   1.472       .  S
O26          C39   1.280       .  A
O26         Cd33   2.115       .  S
O27          C45   1.274       .  A
O27         Cd36   2.060       .  S
O28          C42   1.275       .  A
O28         Cd32   2.071       .  S
O29          C40   1.273       .  A
O29         Cd32   2.079       .  S
Zn30         O41   2.036       .  S
Zn30         O43   1.992       .  S
Zn30         O35   1.941       .  S
O31          C42   1.274       .  A
O31         Cd36   2.077       .  S
Cd32         O34   2.053       .  S
Cd32         O35   1.990       .  S
Cd33         O37   2.124       .  S
Cd33         O46   2.116       .  S
Cd33         O35   2.028       .  S
O34          C44   1.274       .  A
O35         Cd36   1.991       .  S
Cd36         O38   2.059       .  S
O37          C44   1.281       .  A
C39          O43   1.273       .  A
C39        C2424   1.473       .  S
C40        C2475   1.475       .  S
C42        C2456   1.473       .  S
C44        C2440   1.476       .  S
C45          O46   1.280       .  A
C45        C2408   1.475       .  S
O47          C63   1.277       .  A
O47         Zn53   2.036       .  S
C48          O64   1.277       .  A
C48          O61   1.277       .  A
C48        C2363   1.480       .  S
O49          C62   1.279       .  A
O49         Cd56   2.110       .  S
O50          C68   1.273       .  A
O50         Cd59   2.046       .  S
O51          C65   1.274       .  A
O51         Cd55   2.073       .  S
O52          C63   1.274       .  A
O52         Cd55   2.063       .  S
Zn53         O64   2.052       .  S
Zn53         O66   2.026       .  S
Zn53         O58   1.940       .  S
O54          C65   1.277       .  A
O54         Cd59   2.094       .  S
Cd55         O57   2.048       .  S
Cd55         O58   1.986       .  S
Cd56         O60   2.122       .  S
Cd56         O69   2.112       .  S
Cd56         O58   2.029       .  S
O57          C67   1.272       .  A
O58         Cd59   1.993       .  S
Cd59         O61   2.080       .  S
O60          C67   1.280       .  A
C62          O66   1.277       .  A
C62        C2376   1.482       .  S
C63        C2328   1.471       .  S
C65        C2296   1.477       .  S
C67        C2312   1.478       .  S
C68          O69   1.281       .  A
C68        C2347   1.472       .  S
C70        C2267   1.485       .  S
C70          N71   1.368       .  A
C70          N75   1.371   1_554  A
N71          C72   1.359       .  A
C72        C2360   1.478       .  S
C72          N73   1.351       .  A
N73          C74   1.355   1_554  A
C74        C2280   1.482       .  S
C74          N75   1.367       .  A
C76        C2251   1.475       .  S
C76          N77   1.365       .  A
C76          N81   1.367       .  A
N77          C78   1.358       .  A
C78        C2331   1.472       .  S
C78          N79   1.352       .  A
N79          C80   1.352       .  A
C80        C2427   1.473       .  S
C80          N81   1.362       .  A
O82          C98   1.275       .  A
O82         Zn88   2.014       .  S
C83          O99   1.274       .  A
C83          O96   1.272       .  A
C83        C2171   1.472       .  S
O84          C97   1.281       .  A
O84         Cd91   2.122       .  S
O85         C103   1.272       .  A
O85         Cd94   2.044       .  S
O86         C100   1.276       .  A
O86         Cd90   2.073       .  S
O87          C98   1.274       .  A
O87         Cd90   2.082       .  S
Zn88         O99   2.040       .  S
Zn88        O101   1.992       .  S
Zn88         O93   1.941       .  S
O89         C100   1.271       .  A
O89         Cd94   2.060       .  S
Cd90         O92   2.068       .  S
Cd90         O93   2.001       .  S
Cd91         O95   2.117       .  S
Cd91        O104   2.133       .  S
Cd91         O93   2.028       .  S
O92         C102   1.275       .  A
O93         Cd94   1.985       .  S
Cd94         O96   2.051       .  S
O95         C102   1.281       .  A
C97         O101   1.273       .  A
C97        C2184   1.475       .  S
C98        C2232   1.473       .  S
C100       C2200   1.468       .  S
C102       C2216   1.474       .  S
C103        O104   1.282       .  A
C103       C2283   1.480       .  S
O105        C121   1.274       .  A
O105       Zn111   2.020       .  S
C106        O122   1.274       .  A
C106        O119   1.275       .  A
C106       C2139   1.474       .  S
O107        C120   1.279       .  A
O107       Cd114   2.117       .  S
O108        C126   1.275       .  A
O108       Cd117   2.060       .  S
O109        C123   1.275       .  A
O109       Cd113   2.080       .  S
O110        C121   1.275       .  A
O110       Cd113   2.085       .  S
Zn111       O122   2.026       .  S
Zn111       O124   2.001       .  S
Zn111       O116   1.939       .  S
O112        C123   1.276       .  A
O112       Cd117   2.084       .  S
Cd113       O115   2.054       .  S
Cd113       O116   1.998       .  S
Cd114       O118   2.116       .  S
Cd114       O127   2.128       .  S
Cd114       O116   2.039       .  S
O115        C125   1.274       .  A
O116       Cd117   1.996       .  S
Cd117       O119   2.081       .  S
O118        C125   1.280       .  A
C120        O124   1.274       .  A
C120       C2155   1.480       .  S
C121       C2107   1.476       .  S
C123       C2075   1.476       .  S
C125       C2091   1.478       .  S
C126        O127   1.282       .  A
C126       C2120   1.484       .  S
C128       C2056   1.477       .  S
C128        N129   1.364       .  A
C128        N133   1.364       .  A
N129        C130   1.361       .  A
C130       C2187   1.476       .  S
C130        N131   1.356       .  A
N131        C132   1.356       .  A
C132       C2104   1.475       .  S
C132        N133   1.361       .  A
C134       C2043   1.475       .  S
C134        N135   1.365       .  A
C134        N139   1.367       .  A
N135        C136   1.359       .  A
C136       C2235   1.471       .  S
C136        N137   1.353       .  A
N137        C138   1.353       .  A
C138       C2152   1.474       .  S
C138        N139   1.361       .  A
C140       C2008   1.481       .  S
C140        N141   1.367       .  A
C140        N145   1.367   1_545  A
N141        C142   1.362       .  A
C142       C2136   1.476       .  S
C142        N143   1.354       .  A
N143        C144   1.352   1_545  A
C144       C2024   1.474       .  S
C144        N145   1.361       .  A
C146       C1960   1.479       .  S
C146        N147   1.364   1_565  A
C146        N151   1.365       .  A
N147        C148   1.362       .  A
C148       C1995   1.477       .  S
C148        N149   1.355   1_545  A
N149        C150   1.357       .  A
C150       C1976   1.475       .  S
C150        N151   1.362       .  A
C152       C1928   1.478       .  S
C152        N153   1.368       .  A
C152        N157   1.367   1_554  A
N153        C154   1.363       .  A
C154       C1944   1.474       .  S
C154        N155   1.353       .  A
N155        C156   1.350   1_554  A
C156       C2088   1.471       .  S
C156        N157   1.359       .  A
C158       C1896   1.481       .  S
C158        N159   1.367       .  A
C158        N163   1.366       .  A
N159        C160   1.361       .  A
C160       C2072   1.475   1_554  S
C160        N161   1.354       .  A
N161        C162   1.354       .  A
C162       C1912   1.476       .  S
C162        N163   1.362       .  A
C164       C1848   1.478       .  S
C164        N165   1.365   1_565  A
C164        N169   1.368       .  A
N165        C166   1.359       .  A
C166       C1880   1.472       .  S
C166        N167   1.354   1_545  A
N167        C168   1.355       .  A
C168       C1867   1.479       .  S
C168        N169   1.362       .  A
C170       C1816   1.483       .  S
C170        N171   1.370       .  A
C170        N175   1.363   1_455  A
N171        C172   1.368       .  A
C172       C1835   1.484       .  S
C172        N173   1.358       .  A
N173        C174   1.355   1_455  A
C174       C2299   1.476       .  S
C174        N175   1.356       .  A
C176       C1784   1.477       .  S
C176        N177   1.368       .  A
C176        N181   1.365   1_455  A
N177        C178   1.363       .  A
C178       C1800   1.474       .  S
C178        N179   1.353       .  A
N179        C180   1.352   1_455  A
C180       C2315   1.472       .  S
C180        N181   1.359       .  A
O182        C198   1.276       .  A
O182       Zn188   2.029       .  S
C183        O199   1.276       .  A
C183        O196   1.274       .  A
C183       C1915   1.475       .  S
O184        C197   1.279       .  A
O184       Cd191   2.114       .  S
O185        C203   1.273       .  A
O185       Cd194   2.052       .  S
O186        C200   1.278       .  A
O186       Cd190   2.099       .  S
O187        C198   1.278       .  A
O187       Cd190   2.094       .  S
Zn188       O199   2.038       .  S
Zn188       O201   1.993       .  S
Zn188       O193   1.944       .  S
O189        C200   1.277       .  A
O189       Cd194   2.086       .  S
Cd190       O192   2.071       .  S
Cd190       O193   1.997       .  S
Cd191       O195   2.100       .  S
Cd191       O204   2.111       .  S
Cd191       O193   2.032       .  S
O192        C202   1.276       .  A
O193       Cd194   1.992       .  S
Cd194       O196   2.071       .  S
O195        C202   1.278       .  A
C197        O201   1.271       .  A
C197       C1883   1.475       .  S
C198       C1992   1.479       .  S
C200       C1832   1.483       .  S
C202       C1803   1.476       .  S
C203        O204   1.279       .  A
C203       C1947   1.475       .  S
O205        C221   1.276       .  A
O205       Zn211   2.035       .  S
C206        O222   1.275       .  A
C206        O219   1.273       .  A
C206       C2027   1.476       .  S
O207        C220   1.281       .  A
O207       Cd214   2.124       .  S
O208        C226   1.272       .  A
O208       Cd217   2.038       .  S
O209        C223   1.277       .  A
O209       Cd213   2.089       .  S
O210        C221   1.276       .  A
O210       Cd213   2.081       .  S
Zn211       O222   2.047       .  S
Zn211       O224   2.003       .  S
Zn211       O216   1.944       .  S
O212        C223   1.274       .  A
O212       Cd217   2.076       .  S
Cd213       O215   2.057       .  S
Cd213       O216   1.991       .  S
Cd214       O218   2.134       .  S
Cd214       O227   2.136       .  S
Cd214       O216   2.043       .  S
O215        C225   1.275       .  A
O216       Cd217   1.986       .  S
Cd217       O219   2.061       .  S
O218        C225   1.282       .  A
C220        O224   1.275       .  A
C220       C1755   1.483       .  S
C221       C1736   1.476       .  S
C223       C1720   1.477       .  S
C225       C1768   1.486       .  S
C226        O227   1.282       .  A
C226       C1707   1.483       .  S
O228        C244   1.277       .  A
O228       Zn234   2.035       .  S
C229        O245   1.277       .  A
C229        O242   1.274       .  A
C229       C1640   1.470       .  S
O230        C243   1.280       .  A
O230       Cd237   2.115       .  S
O231        C249   1.276       .  A
O231       Cd240   2.062       .  S
O232        C246   1.276       .  A
O232       Cd236   2.085       .  S
O233        C244   1.274       .  A
O233       Cd236   2.080       .  S
Zn234       O245   2.034       .  S
Zn234       O247   2.026       .  S
Zn234       O239   1.943       .  S
O235        C246   1.276       .  A
O235       Cd240   2.091       .  S
Cd236       O238   2.049       .  S
Cd236       O239   1.995       .  S
Cd237       O241   2.110       .  S
Cd237       O250   2.120       .  S
Cd237       O239   2.028       .  S
O238        C248   1.273       .  A
O239       Cd240   1.990       .  S
Cd240       O242   2.063       .  S
O241        C248   1.281       .  A
C243        O247   1.275       .  A
C243       C1864   1.482       .  S
C244       C1979   1.477       .  S
C246       C1659   1.479       .  S
C248       C1675   1.472       .  S
C249        O250   1.281       .  A
C249       C1688   1.483       .  S
C251       C1627   1.485       .  S
C251        N252   1.367   1_655  A
C251        N256   1.369       .  A
N252        C253   1.362       .  A
C253       C1656   1.481       .  S
C253        N254   1.355   1_455  A
N254        C255   1.355       .  A
C255       C2411   1.480       .  S
C255        N256   1.364       .  A
C257       C1608   1.476       .  S
C257        N258   1.366       .  A
C257        N262   1.362       .  A
N258        C259   1.361       .  A
C259       C1723   1.476       .  S
C259        N260   1.355       .  A
N260        C261   1.355       .  A
C261       C1643   1.472       .  S
C261        N262   1.359       .  A
C263       C1595   1.484       .  S
C263        N264   1.369       .  A
C263        N268   1.368       .  A
N264        C265   1.363       .  A
C265       C1691   1.478       .  S
C265        N266   1.354       .  A
N266        C267   1.354       .  A
C267       C1771   1.479       .  S
C267        N268   1.362       .  A
C269       C1579   1.468       .  S
C269        N270   1.365       .  A
C269        N274   1.365   1_455  A
N270        C271   1.358       .  A
C271       C1672   1.471       .  S
C271        N272   1.352   1_455  A
N272        C273   1.351       .  A
C273       C2392   1.468       .  S
C273        N274   1.358       .  A
C275       C1560   1.484       .  S
C275        N276   1.369   1_565  A
C275        N280   1.370       .  A
N276        C277   1.363       .  A
C277       C2123   1.478       .  S
C277        N278   1.352   1_545  A
N278        C279   1.353       .  A
C279       C1704   1.477       .  S
C279        N280   1.363       .  A
C281       C1544   1.473   1_556  S
C281        N282   1.364       .  A
C281        N286   1.364   1_556  A
N282        C283   1.360       .  A
C283       C2168   1.470       .  S
C283        N284   1.354       .  A
N284        C285   1.354   1_556  A
C285       C2344   1.471       .  S
C285        N286   1.358       .  A
C287       C1528   1.477       .  S
C287        N288   1.368       .  A
C287        N292   1.365       .  A
N288        C289   1.360       .  A
C289       C1752   1.474       .  S
C289        N290   1.352       .  A
N290        C291   1.353       .  A
C291       C2571   1.475       .  S
C291        N292   1.361       .  A
C293       C1512   1.479       .  S
C293        N294   1.370       .  A
C293        N298   1.366       .  A
N294        C295   1.364       .  A
C295       C2555   1.477       .  S
C295        N296   1.353       .  A
N296        C297   1.352       .  A
C297       C1739   1.477       .  S
C297        N298   1.359       .  A
C299       C1496   1.477       .  S
C299        N300   1.366       .  A
C299        N304   1.368       .  A
N300        C301   1.360       .  A
C301       C2459   1.470       .  S
C301        N302   1.351       .  A
N302        C303   1.352       .  A
C303       C2504   1.475       .  S
C303        N304   1.363       .  A
C305       C1480   1.478       .  S
C305        N306   1.369       .  A
C305        N310   1.368       .  A
N306        C307   1.362       .  A
C307       C2488   1.481       .  S
C307        N308   1.353       .  A
N308        C309   1.351       .  A
C309       C2219   1.480       .  S
C309        N310   1.360       .  A
C311       C1464   1.473       .  S
C311        N312   1.366       .  A
C311        N316   1.366       .  A
N312        C313   1.359       .  A
C313       C2203   1.467       .  S
C313        N314   1.350       .  A
N314        C315   1.352       .  A
C315       C2539   1.474       .  S
C315        N316   1.360       .  A
C317       C1448   1.480       .  S
C317        N318   1.370       .  A
C317        N322   1.366       .  A
N318        C319   1.363       .  A
C319       C2443   1.485       .  S
C319        N320   1.356       .  A
N320        C321   1.353       .  A
C321       C2520   1.480       .  S
C321        N322   1.359       .  A
C323       C1432   1.483       .  S
C323        N324   1.366       .  A
C323        N328   1.371       .  A
N324        C325   1.359       .  A
C325       C2472   1.474       .  S
C325        N326   1.351       .  A
N326        C327   1.353       .  A
C327       C2379   1.482       .  S
C327        N328   1.366       .  A
O329        C345   1.277       .  A
O329       Zn335   2.066       .  S
C330        O346   1.277       .  A
C330        O343   1.276       .  A
C330       C1384   1.477       .  S
O331        C344   1.277       .  A
O331       Cd338   2.097       .  S
O332        C350   1.275       .  A
O332       Cd341   2.075       .  S
O333        C347   1.275       .  A
O333       Cd337   2.075       .  S
O334        C345   1.275       .  A
O334       Cd337   2.067       .  S
Zn335       O346   2.031       .  S
Zn335       O348   2.004       .  S
Zn335       O340   1.946       .  S
O336        C347   1.276       .  A
O336       Cd341   2.080       .  S
Cd337       O339   2.056       .  S
Cd337       O340   1.990       .  S
Cd338       O342   2.097       .  S
Cd338       O351   2.094       .  S
Cd338       O340   2.024       .  S
O339        C349   1.274       .  A
O340       Cd341   1.998       .  S
Cd341       O343   2.087       .  S
O342        C349   1.276       .  A
C344        O348   1.274       .  A
C344       C1416   1.468       .  S
C345       C1355   1.484       .  S
C347       C1403   1.473       .  S
C349       C1371   1.468       .  S
C350        O351   1.276       .  A
C350       C1339   1.472       .  S
O352        C368   1.276       .  A
O352       Zn358   2.050       .  S
C353        O369   1.278       .  A
C353        O366   1.275       .  A
C353       C1323   1.477       .  S
O354        C367   1.281       .  A
O354       Cd361   2.123       .  S
O355        C373   1.276       .  A
O355       Cd364   2.067       .  S
O356        C370   1.274       .  A
O356       Cd360   2.081       .  S
O357        C368   1.274       .  A
O357       Cd360   2.062       .  S
Zn358       O369   2.039       .  S
Zn358       O371   2.014       .  S
Zn358       O363   1.947       .  S
O359        C370   1.276       .  A
O359       Cd364   2.087       .  S
Cd360       O362   2.048       .  S
Cd360       O363   1.993       .  S
Cd361       O365   2.114       .  S
Cd361       O374   2.121       .  S
Cd361       O363   2.032       .  S
O362        C372   1.273       .  A
O363       Cd364   1.995       .  S
Cd364       O366   2.077       .  S
O365        C372   1.281       .  A
C367        O371   1.275       .  A
C367       C1272   1.484       .  S
C368       C1304   1.476       .  S
C370       C1243   1.478       .  S
C372       C1288   1.473       .  S
C373        O374   1.281       .  A
C373       C1259   1.483       .  S
C375       C2040   1.473       .  S
C375        N376   1.364       .  A
C375        N380   1.366       .  A
N376        C377   1.360       .  A
C377       C1307   1.469       .  S
C377        N378   1.352       .  A
N378        C379   1.354       .  A
C379       C1224   1.476       .  S
C379        N380   1.360       .  A
O381        C397   1.273       .  A
O381       Zn387   2.028       .  S
C382        O398   1.275       .  A
C382        O395   1.275       .  A
C382       C1195   1.476       .  S
O383        C396   1.280       .  A
O383       Cd390   2.117       .  S
O384        C402   1.276       .  A
O384       Cd393   2.067       .  S
O385        C399   1.274       .  A
O385       Cd389   2.076       .  S
O386        C397   1.274       .  A
O386       Cd389   2.062       .  S
Zn387       O398   2.024       .  S
Zn387       O400   2.004       .  S
Zn387       O392   1.941       .  S
O388        C399   1.276       .  A
O388       Cd393   2.086       .  S
Cd389       O391   2.062       .  S
Cd389       O392   1.992       .  S
Cd390       O394   2.109       .  S
Cd390       O403   2.109       .  S
Cd390       O392   2.020       .  S
O391        C401   1.274       .  A
O392       Cd393   1.998       .  S
Cd393       O395   2.085       .  S
O394        C401   1.279       .  A
C396        O400   1.273       .  A
C396       C1163   1.475       .  S
C397       C1208   1.471       .  S
C399       C1176   1.475       .  S
C401       C1227   1.472       .  S
C402        O403   1.280       .  A
C402       C1144   1.475       .  S
C404       C1435   1.484       .  S
C404        N405   1.372       .  A
C404        N409   1.368       .  A
N405        C406   1.366       .  A
C406       C1160   1.486       .  S
C406        N407   1.355       .  A
N407        C408   1.350       .  A
C408       C1128   1.479       .  S
C408        N409   1.359       .  A
C410       C1531   1.476       .  S
C410        N411   1.365       .  A
C410        N415   1.364       .  A
N411        C412   1.361       .  A
C412       C1096   1.477       .  S
C412        N413   1.355       .  A
N413        C414   1.355       .  A
C414       C1112   1.471       .  S
C414        N415   1.359       .  A
O416        C432   1.275       .  A
O416       Zn422   2.028       .  S
C417        O433   1.277       .  A
C417        O430   1.275       .  A
C417       C1131   1.481       .  S
O418        C431   1.280       .  A
O418       Cd425   2.110       .  S
O419        C437   1.273       .  A
O419       Cd428   2.045       .  S
O420        C434   1.274       .  A
O420       Cd424   2.071       .  S
O421        C432   1.274       .  A
O421       Cd424   2.059       .  S
Zn422       O433   2.047       .  S
Zn422       O435   2.006       .  S
Zn422       O427   1.945       .  S
O423        C434   1.275       .  A
O423       Cd428   2.079       .  S
Cd424       O426   2.068       .  S
Cd424       O427   1.988       .  S
Cd425       O429   2.125       .  S
Cd425       O438   2.109       .  S
Cd425       O427   2.033       .  S
O426        C436   1.276       .  A
O427       Cd428   1.991       .  S
Cd428       O430   2.083       .  S
O429        C436   1.280       .  A
C431        O435   1.274       .  A
C431       C1035   1.475       .  S
C432       C1051   1.470       .  S
C434       C1115   1.472       .  S
C436       C1067   1.487       .  S
C437        O438   1.280       .  A
C437       C1080   1.471       .  S
C439       C1592   1.483       .  S
C439        N440   1.370       .  A
C439        N444   1.369       .  A
N440        C441   1.361       .  A
C441       C1147   1.475       .  S
C441        N442   1.349       .  A
N442        C443   1.351       .  A
C443       C1336   1.479       .  S
C443        N444   1.363       .  A
O445        C461   1.278       .  A
O445       Zn451   2.059       .  S
C446        O462   1.278       .  A
C446        O459   1.275       .  A
C446       C1099   1.477       .  S
O447        C460   1.279       .  A
O447       Cd454   2.108       .  S
O448        C466   1.274       .  A
O448       Cd457   2.062       .  S
O449        C463   1.275       .  A
O449       Cd453   2.089       .  S
O450        C461   1.274       .  A
O450       Cd453   2.064       .  S
Zn451       O462   2.049       .  S
Zn451       O464   2.022       .  S
Zn451       O456   1.951       .  S
O452        C463   1.276       .  A
O452       Cd457   2.077       .  S
Cd453       O455   2.043       .  S
Cd453       O456   1.994       .  S
Cd454       O458   2.110       .  S
Cd454       O467   2.108       .  S
Cd454       O456   2.031       .  S
O455        C465   1.272       .  A
O456       Cd457   1.992       .  S
Cd457       O459   2.071       .  S
O458        C465   1.279       .  A
C460        O464   1.275       .  A
C460       C1000   1.479       .  S
C461        C955   1.479       .  S
C463        C987   1.479       .  S
C465        C971   1.471       .  S
C466        O467   1.279       .  A
C466       C1019   1.477       .  S
C468       C2264   1.482       .  S
C468        N469   1.367   1_554  A
C468        N473   1.368       .  A
N469        C470   1.362       .  A
C470        C939   1.473       .  S
C470        N471   1.352   1_556  A
N471        C472   1.353       .  A
C472       C1016   1.475       .  S
C472        N473   1.363       .  A
O474        C490   1.275       .  A
O474       Zn480   2.038       .  S
C475        O491   1.276       .  A
C475        O488   1.277       .  A
C475        C904   1.472       .  S
O476        C489   1.277       .  A
O476       Cd483   2.096       .  S
O477        C495   1.275       .  A
O477       Cd486   2.075       .  S
O478        C492   1.278       .  A
O478       Cd482   2.092       .  S
O479        C490   1.275       .  A
O479       Cd482   2.081       .  S
Zn480       O491   2.025       .  S
Zn480       O493   2.015       .  S
Zn480       O485   1.946       .  S
O481        C492   1.277       .  A
O481       Cd486   2.091       .  S
Cd482       O484   2.050       .  S
Cd482       O485   1.995       .  S
Cd483       O487   2.095       .  S
Cd483       O496   2.111       .  S
Cd483       O485   2.029       .  S
O484        C494   1.274       .  A
O485       Cd486   1.997       .  S
Cd486       O488   2.082       .  S
O487        C494   1.277       .  A
C489        O493   1.274       .  A
C489        C891   1.476       .  S
C490        C856   1.479       .  S
C492        C875   1.482       .  S
C494        C840   1.469       .  S
C495        O496   1.280       .  A
C495        C923   1.482       .  S
C497       C2011   1.479       .  S
C497        N498   1.366       .  A
C497        N502   1.366   1_545  A
N498        C499   1.361       .  A
C499        C920   1.477       .  S
C499        N500   1.354       .  A
N500        C501   1.356   1_545  A
C501        C824   1.477       .  S
C501        N502   1.361       .  A
O503        C519   1.276       .  A
O503       Zn509   2.043       .  S
C504        O520   1.277       .  A
C504        O517   1.277       .  A
C504        C763   1.482       .  S
O505        C518   1.280       .  A
O505       Cd512   2.114       .  S
O506        C524   1.275       .  A
O506       Cd515   2.062       .  S
O507        C521   1.275       .  A
O507       Cd511   2.080       .  S
O508        C519   1.274       .  A
O508       Cd511   2.066       .  S
Zn509       O520   2.033       .  S
Zn509       O522   2.001       .  S
Zn509       O514   1.941       .  S
O510        C521   1.276       .  A
O510       Cd515   2.082       .  S
Cd511       O513   2.043       .  S
Cd511       O514   1.988       .  S
Cd512       O516   2.128       .  S
Cd512       O525   2.111       .  S
Cd512       O514   2.038       .  S
O513        C523   1.272       .  A
O514       Cd515   1.997       .  S
Cd515       O517   2.098       .  S
O516        C523   1.281       .  A
C518        O522   1.273       .  A
C518        C827   1.475       .  S
C519        C779   1.474       .  S
C521        C792   1.476       .  S
C523        C936   1.482       .  S
C524        O525   1.280       .  A
C524        C808   1.474       .  S
O526        C542   1.277       .  A
O526       Zn532   2.051       .  S
C527        O543   1.278       .  A
C527        O540   1.275       .  A
C527        C683   1.485       .  S
O528        C541   1.280       .  A
O528       Cd535   2.114       .  S
O529        C547   1.274       .  A
O529       Cd538   2.050       .  S
O530        C544   1.274       .  A
O530       Cd534   2.076       .  S
O531        C542   1.274       .  A
O531       Cd534   2.056       .  S
Zn532       O543   2.063       .  S
Zn532       O545   1.998       .  S
Zn532       O537   1.949       .  S
O533        C544   1.276       .  A
O533       Cd538   2.076       .  S
Cd534       O536   2.057       .  S
Cd534       O537   1.989       .  S
Cd535       O539   2.129       .  S
Cd535       O548   2.116       .  S
Cd535       O537   2.038       .  S
O536        C546   1.273       .  A
O537       Cd538   1.989       .  S
Cd538       O540   2.082       .  S
O539        C546   1.281       .  A
C541        O545   1.273       .  A
C541        C664   1.475       .  S
C542        C696   1.475       .  S
C544        C728   1.473       .  S
C546        C744   1.481       .  S
C547        O548   1.280       .  A
C547        C712   1.477       .  S
C549       C1624   1.488       .  S
C549        N550   1.371       .  A
C549        N554   1.371   1_655  A
N550        C551   1.363       .  A
C551        C811   1.482       .  S
C551        N552   1.352       .  A
N552        C553   1.351   1_655  A
C553        C747   1.483       .  S
C553        N554   1.364       .  A
C555       C1467   1.474       .  S
C555        N556   1.368       .  A
C555        N560   1.364       .  A
N556        C557   1.363       .  A
C557       C1419   1.478       .  S
C557        N558   1.355       .  A
N558        C559   1.350       .  A
C559        C731   1.470       .  S
C559        N560   1.357       .  A
C561       C1483   1.481       .  S
C561        N562   1.368       .  A
C561        N566   1.369       .  A
N562        C563   1.359       .  A
C563        C715   1.471       .  S
C563        N564   1.349       .  A
N564        C565   1.351       .  A
C565       C1387   1.475       .  S
C565        N566   1.364       .  A
C567       C1499   1.477       .  S
C567        N568   1.365       .  A
C567        N572   1.361       .  A
N568        C569   1.363       .  A
C569       C1320   1.475       .  S
C569        N570   1.357       .  A
N570        C571   1.357       .  A
C571        C907   1.473       .  S
C571        N572   1.358       .  A
C573       C1787   1.477       .  S
C573        N574   1.366   1_455  A
C573        N578   1.366       .  A
N574        C575   1.361       .  A
C575        C859   1.478       .  S
C575        N576   1.354   1_655  A
N576        C577   1.354       .  A
C577       C1368   1.473       .  S
C577        N578   1.360       .  A
C579       C1819   1.482       .  S
C579        N580   1.368       .  A
C579        N584   1.370   1_655  A
N580        C581   1.361       .  A
C581        C843   1.472       .  S
C581        N582   1.351       .  A
N582        C583   1.350   1_655  A
C583       C1352   1.478       .  S
C583        N584   1.363       .  A
C585       C1515   1.481       .  S
C585        N586   1.364       .  A
C585        N590   1.370       .  A
N586        C587   1.358       .  A
C587       C1083   1.468       .  S
C587        N588   1.352       .  A
N588        C589   1.354       .  A
C589       C1003   1.479       .  S
C589        N590   1.364       .  A
C591       C1963   1.482       .  S
C591        N592   1.372       .  A
C591        N596   1.367   1_545  A
N592        C593   1.364       .  A
C593       C1256   1.478       .  S
C593        N594   1.351       .  A
N594        C595   1.351   1_545  A
C595        C968   1.473       .  S
C595        N596   1.359       .  A
C597       C1899   1.483       .  S
C597        N598   1.369       .  A
C597        N602   1.367   1_554  A
N598        C599   1.364       .  A
C599       C1064   1.480       .  S
C599        N600   1.354       .  A
N600        C601   1.355   1_554  A
C601        C667   1.476       .  S
C601        N602   1.360       .  A
C603       C1451   1.480       .  S
C603        N604   1.365       .  A
C603        N608   1.368       .  A
N604        C605   1.360       .  A
C605        C888   1.471       .  S
C605        N606   1.354       .  A
N606        C607   1.354       .  A
C607       C1275   1.478       .  S
C607        N608   1.363       .  A
C609       C2248   1.475       .  S
C609        N610   1.366       .  A
C609        N614   1.367       .  A
N610        C611   1.358       .  A
C611       C1032   1.473       .  S
C611        N612   1.352       .  A
N612        C613   1.352       .  A
C613       C1192   1.473       .  S
C613        N614   1.362       .  A
C615       C1931   1.480       .  S
C615        N616   1.362       .  A
C615        N620   1.368       .  A
N616        C617   1.358       .  A
C617       C1048   1.469       .  S
C617        N618   1.354       .  A
N618        C619   1.356       .  A
C619        C680   1.482   1_554  S
C619        N620   1.365       .  A
C621       C1851   1.476       .  S
C621        N622   1.363       .  A
C621        N626   1.364   1_565  A
N622        C623   1.360       .  A
C623        C952   1.475       .  S
C623        N624   1.356   1_565  A
N624        C625   1.358       .  A
C625       C1240   1.477       .  S
C625        N626   1.361       .  A
C627       C2059   1.476       .  S
C627        N628   1.367       .  A
C627        N632   1.366       .  A
N628        C629   1.362       .  A
C629       C1211   1.470       .  S
C629        N630   1.352       .  A
N630        C631   1.352       .  A
C631       C1291   1.473       .  S
C631        N632   1.358       .  A
C633       C1611   1.477       .  S
C633        N634   1.367       .  A
C633        N638   1.366       .  A
N634        C635   1.361       .  A
C635       C1179   1.474       .  S
C635        N636   1.353       .  A
N636        C637   1.353       .  A
C637       C1400   1.476       .  S
C637        N638   1.360       .  A
C639       C1576   1.470       .  S
C639        N640   1.363   1_455  A
C639        N644   1.361       .  A
N640        C641   1.359       .  A
C641        C795   1.474       .  S
C641        N642   1.357   1_655  A
N642        C643   1.356       .  A
C643        C699   1.470       .  S
C643        N644   1.358       .  A
C645       C1547   1.474       .  S
C645        N646   1.365   1_554  A
C645        N650   1.365       .  A
N646        C647   1.360       .  A
C647        C776   1.477       .  S
C647        N648   1.355   1_556  A
N648        C649   1.354       .  A
C649        C984   1.474       .  S
C649        N650   1.360       .  A
C651       C1563   1.485       .  S
C651        N652   1.367   1_545  A
C651        N656   1.366       .  A
N652        C653   1.363       .  A
C653        C760   1.481       .  S
C653        N654   1.357   1_565  A
N654        C655   1.357       .  A
C655        C872   1.482       .  S
C655        N656   1.363       .  A
C657        C662   1.380       .  A
C657        C658   1.396       .  A
C657        O663   1.312       .  A
C658        C659   1.395       .  A
C658        H669   1.083       .  S
C659        C668   1.354       .  A
C659        C660   1.380       .  A
C660        C661   1.415       .  A
C660        O666   1.328       .  A
C661        C662   1.414       .  A
C661        H670   1.082       .  S
C662        C665   1.376       .  A
O663        C664   1.328       .  A
C664        C665   1.398       .  A
C665        H671   1.082       .  S
O666        C667   1.337       .  A
C667        C668   1.387       .  A
C668        H672   1.083   1_556  S
C673        C678   1.380       .  A
C673        C674   1.408       .  A
C673        O679   1.327       .  A
C674        C675   1.410       .  A
C674        H685   1.081       .  S
C675        C684   1.366       .  A
C675        C676   1.380       .  A
C676        C677   1.406       .  A
C676        O682   1.324       .  A
C677        C678   1.406       .  A
C677        H686   1.081       .  S
C678        C681   1.361       .  A
O679        C680   1.334       .  A
C680        C681   1.394       .  A
C681        H687   1.082   1_556  S
O682        C683   1.333       .  A
C683        C684   1.396       .  A
C684        H688   1.082       .  S
C689        C694   1.380       .  A
C689        C690   1.408   1_556  A
C689        O695   1.324       .  A
C690        C691   1.407       .  A
C690        H701   1.082       .  S
C691        C700   1.367       .  A
C691        C692   1.381   1_554  A
C692        C693   1.400       .  A
C692        O698   1.316       .  A
C693        C694   1.400       .  A
C693        H702   1.082       .  S
C694        C697   1.357       .  A
O695        C696   1.334       .  A
C696        C697   1.391       .  A
C697        H703   1.083       .  S
O698        C699   1.329   1_556  A
C699        C700   1.393       .  A
C700        H704   1.082       .  S
C705        C710   1.379       .  A
C705        C706   1.413       .  A
C705        O711   1.328       .  A
C706        C707   1.412       .  A
C706        H717   1.082       .  S
C707        C716   1.374       .  A
C707        C708   1.380       .  A
C708        C709   1.397       .  A
C708        O714   1.312       .  A
C709        C710   1.396       .  A
C709        H718   1.082       .  S
C710        C713   1.353       .  A
O711        C712   1.336       .  A
C712        C713   1.389       .  A
C713        H719   1.083       .  S
O714        C715   1.328       .  A
C715        C716   1.396       .  A
C716        H720   1.082       .  S
C721        C726   1.380       .  A
C721        C722   1.408       .  A
C721        O727   1.321       .  A
C722        C723   1.406       .  A
C722        H733   1.082   1_455  S
C723        C732   1.369   1_455  A
C723        C724   1.380       .  A
C724        C725   1.401       .  A
C724        O730   1.315       .  A
C725        C726   1.399       .  A
C725        H734   1.082       .  S
C726        C729   1.360       .  A
O727        C728   1.333       .  A
C728        C729   1.390       .  A
C729        H735   1.083       .  S
O730        C731   1.329   1_455  A
C731        C732   1.393       .  A
C732        H736   1.082       .  S
C737        C742   1.380       .  A
C737        C738   1.399       .  A
C737        O743   1.315       .  A
C738        C739   1.399       .  A
C738        H749   1.082       .  S
C739        C748   1.354       .  A
C739        C740   1.379       .  A
C740        C741   1.415       .  A
C740        O746   1.331       .  A
C741        C742   1.415       .  A
C741        H750   1.082       .  S
C742        C745   1.377       .  A
O743        C744   1.330       .  A
C744        C745   1.398       .  A
C745        H751   1.082       .  S
O746        C747   1.337       .  A
C747        C748   1.391       .  A
C748        H752   1.083   1_455  S
C753        C758   1.380   1_655  A
C753        C754   1.402       .  A
C753        O759   1.318       .  A
C754        C755   1.401       .  A
C754        H765   1.083       .  S
C755        C764   1.360       .  A
C755        C756   1.379       .  A
C756        C757   1.412       .  A
C756        O762   1.326       .  A
C757        C758   1.411   1_655  A
C757        H766   1.082   1_655  S
C758        C761   1.373       .  A
O759        C760   1.331   1_655  A
C760        C761   1.396       .  A
C761        H767   1.082       .  S
O762        C763   1.336       .  A
C763        C764   1.391       .  A
C764        H768   1.083       .  S
C769        C774   1.380   1_545  A
C769        C770   1.410       .  A
C769        O775   1.326       .  A
C770        C771   1.410   1_545  A
C770        H781   1.082       .  S
C771        C780   1.369       .  A
C771        C772   1.380       .  A
C772        C773   1.399       .  A
C772        O778   1.316       .  A
C773        C774   1.399       .  A
C773        H782   1.082       .  S
C774        C777   1.355       .  A
O775        C776   1.335       .  A
C776        C777   1.390   1_545  A
C777        H783   1.083   1_556  S
O778        C779   1.329       .  A
C779        C780   1.396       .  A
C780        H784   1.082       .  S
C785        C790   1.380       .  A
C785        C786   1.401       .  A
C785        O791   1.318       .  A
C786        C787   1.401       .  A
C786        H797   1.081       .  S
C787        C796   1.358       .  A
C787        C788   1.380   1_556  A
C788        C789   1.408       .  A
C788        O794   1.324       .  A
C789        C790   1.408   1_554  A
C789        H798   1.081       .  S
C790        C793   1.367       .  A
O791        C792   1.330       .  A
C792        C793   1.395       .  A
C793        H799   1.082       .  S
O794        C795   1.333       .  A
C795        C796   1.390   1_554  A
C796        H800   1.082   1_655  S
C801        C806   1.380       .  A
C801        C802   1.396       .  A
C801        O807   1.314       .  A
C802        C803   1.396       .  A
C802        H813   1.083       .  S
C803        C812   1.351       .  A
C803        C804   1.379       .  A
C804        C805   1.415       .  A
C804        O810   1.331       .  A
C805        C806   1.415       .  A
C805        H814   1.082       .  S
C806        C809   1.375       .  A
O807        C808   1.327       .  A
C808        C809   1.398       .  A
C809        H815   1.082       .  S
O810        C811   1.337       .  A
C811        C812   1.389       .  A
C812        H816   1.083       .  S
C817        C822   1.379       .  A
C817        C818   1.413       .  A
C817        O823   1.327       .  A
C818        C819   1.412       .  A
C818        H829   1.082       .  S
C819        C828   1.374       .  A
C819        C820   1.380       .  A
C820        C821   1.398       .  A
C820        O826   1.314       .  A
C821        C822   1.397       .  A
C821        H830   1.082       .  S
C822        C825   1.355       .  A
O823        C824   1.336       .  A
C824        C825   1.389       .  A
C825        H831   1.083       .  S
O826        C827   1.329       .  A
C827        C828   1.397       .  A
C828        H832   1.082       .  S
C833        C838   1.380       .  A
C833        C834   1.411       .  A
C833        O839   1.325       .  A
C834        C835   1.410       .  A
C834        H845   1.082       .  S
C835        C844   1.374       .  A
C835        C836   1.380       .  A
C836        C837   1.396       .  A
C836        O842   1.311       .  A
C837        C838   1.394       .  A
C837        H846   1.082       .  S
C838        C841   1.353       .  A
O839        C840   1.334       .  A
C840        C841   1.388       .  A
C841        H847   1.083       .  S
O842        C843   1.328       .  A
C843        C844   1.396       .  A
C844        H848   1.082       .  S
C849        C854   1.380       .  A
C849        C850   1.403       .  A
C849        O855   1.320       .  A
C850        C851   1.402       .  A
C850        H861   1.082       .  S
C851        C860   1.359       .  A
C851        C852   1.380       .  A
C852        C853   1.409       .  A
C852        O858   1.326       .  A
C853        C854   1.409       .  A
C853        H862   1.081       .  S
C854        C857   1.368       .  A
O855        C856   1.331       .  A
C856        C857   1.396       .  A
C857        H863   1.082       .  S
O858        C859   1.333       .  A
C859        C860   1.392       .  A
C860        H864   1.082   1_655  S
C865        C870   1.380   1_455  A
C865        C866   1.409       .  A
C865        O871   1.326       .  A
C866        C867   1.409   1_455  A
C866        H877   1.083       .  S
C867        C876   1.368       .  A
C867        C868   1.380       .  A
C868        C869   1.404       .  A
C868        O874   1.321       .  A
C869        C870   1.404       .  A
C869        H878   1.083       .  S
C870        C873   1.361       .  A
O871        C872   1.334       .  A
C872        C873   1.393   1_455  A
C873        H879   1.083       .  S
O874        C875   1.332       .  A
C875        C876   1.395       .  A
C876        H880   1.083       .  S
C881        C886   1.380       .  A
C881        C882   1.410       .  A
C881        O887   1.325       .  A
C882        C883   1.409       .  A
C882        H893   1.083       .  S
C883        C892   1.369       .  A
C883        C884   1.380       .  A
C884        C885   1.400       .  A
C884        O890   1.317       .  A
C885        C886   1.399       .  A
C885        H894   1.083       .  S
C886        C889   1.357       .  A
O887        C888   1.334       .  A
C888        C889   1.388       .  A
C889        H895   1.083       .  S
O890        C891   1.330       .  A
C891        C892   1.395       .  A
C892        H896   1.082       .  S
C897        C902   1.381       .  A
C897        C898   1.402       .  A
C897        O903   1.318       .  A
C898        C899   1.401       .  A
C898        H909   1.082       .  S
C899        C908   1.360       .  A
C899        C900   1.380       .  A
C900        C901   1.406       .  A
C900        O906   1.322   1_545  A
C901        C902   1.405       .  A
C901        H910   1.082   1_545  S
C902        C905   1.365       .  A
O903        C904   1.330       .  A
C904        C905   1.393       .  A
C905        H911   1.082       .  S
O906        C907   1.332       .  A
C907        C908   1.391   1_565  A
C908        H912   1.082       .  S
C913        C918   1.380       .  A
C913        C914   1.412       .  A
C913        O919   1.327       .  A
C914        C915   1.412       .  A
C914        H925   1.082       .  S
C915        C924   1.373       .  A
C915        C916   1.380       .  A
C916        C917   1.401       .  A
C916        O922   1.317       .  A
C917        C918   1.400       .  A
C917        H926   1.082       .  S
C918        C921   1.359       .  A
O919        C920   1.335       .  A
C920        C921   1.389       .  A
C921        H927   1.083   1_545  S
O922        C923   1.331       .  A
C923        C924   1.397       .  A
C924        H928   1.082       .  S
C929        C934   1.379       .  A
C929        C930   1.413       .  A
C929        O935   1.330       .  A
C930        C931   1.413       .  A
C930        H941   1.082       .  S
C931        C940   1.373       .  A
C931        C932   1.380       .  A
C932        C933   1.398       .  A
C932        O938   1.316       .  A
C933        C934   1.398       .  A
C933        H942   1.083       .  S
C934        C937   1.353       .  A
O935        C936   1.336       .  A
C936        C937   1.391       .  A
C937        H943   1.083       .  S
O938        C939   1.329       .  A
C939        C940   1.396       .  A
C940        H944   1.082       .  S
C945        C950   1.380       .  A
C945        C946   1.402       .  A
C945        O951   1.319       .  A
C946        C947   1.402       .  A
C946        H957   1.083       .  S
C947        C956   1.360       .  A
C947        C948   1.380       .  A
C948        C949   1.408       .  A
C948        O954   1.324       .  A
C949        C950   1.408       .  A
C949        H958   1.083       .  S
C950        C953   1.368       .  A
O951        C952   1.331       .  A
C952        C953   1.394       .  A
C953        H959   1.083       .  S
O954        C955   1.334       .  A
C955        C956   1.392       .  A
C956        H960   1.083       .  S
C961        C966   1.380       .  A
C961        C962   1.412       .  A
C961        O967   1.327       .  A
C962        C963   1.412       .  A
C962        H973   1.082       .  S
C963        C972   1.373       .  A
C963        C964   1.380       .  A
C964        C965   1.396       .  A
C964        O970   1.312       .  A
C965        C966   1.395       .  A
C965        H974   1.083       .  S
C966        C969   1.352       .  A
O967        C968   1.335       .  A
C968        C969   1.388       .  A
C969        H975   1.083   1_565  S
O970        C971   1.328       .  A
C971        C972   1.396       .  A
C972        H976   1.082       .  S
C977        C982   1.380   1_565  A
C977        C978   1.401       .  A
C977        O983   1.315       .  A
C978        C979   1.400       .  A
C978        H989   1.081       .  S
C979        C988   1.359       .  A
C979        C980   1.379       .  A
C980        C981   1.411   1_565  A
C980        O986   1.325       .  A
C981        C982   1.410       .  A
C981        H990   1.081       .  S
C982        C985   1.372       .  A
O983        C984   1.329   1_565  A
C984        C985   1.395       .  A
C985        H991   1.082       .  S
O986        C987   1.335       .  A
C987        C988   1.391       .  A
C988        H992   1.082       .  S
C993        C998   1.380       .  A
C993        C994   1.400       .  A
C993        O999   1.317       .  A
C994        C995   1.399       .  A
C994       H1005   1.083       .  S
C995       C1004   1.356       .  A
C995        C996   1.379       .  A
C996        C997   1.413       .  A
C996       O1002   1.329       .  A
C997        C998   1.413       .  A
C997       H1006   1.082       .  S
C998       C1001   1.373       .  A
O999       C1000   1.330       .  A
C1000      C1001   1.397       .  A
C1001      H1007   1.082       .  S
O1002      C1003   1.336       .  A
C1003      C1004   1.390       .  A
C1004      H1008   1.083       .  S
C1009      C1014   1.380       .  A
C1009      C1010   1.400       .  A
C1009      O1015   1.314       .  A
C1010      C1011   1.398       .  A
C1010      H1021   1.083       .  S
C1011      C1020   1.357       .  A
C1011      C1012   1.380       .  A
C1012      C1013   1.412       .  A
C1012      O1018   1.326       .  A
C1013      C1014   1.411       .  A
C1013      H1022   1.082       .  S
C1014      C1017   1.373       .  A
O1015      C1016   1.329       .  A
C1016      C1017   1.395       .  A
C1017      H1023   1.082       .  S
O1018      C1019   1.335       .  A
C1019      C1020   1.390       .  A
C1020      H1024   1.083       .  S
C1025      C1030   1.380       .  A
C1025      C1026   1.412       .  A
C1025      O1031   1.326       .  A
C1026      C1027   1.411       .  A
C1026      H1037   1.082       .  S
C1027      C1036   1.372       .  A
C1027      C1028   1.380       .  A
C1028      C1029   1.398       .  A
C1028      O1034   1.314       .  A
C1029      C1030   1.397       .  A
C1029      H1038   1.082       .  S
C1030      C1033   1.355       .  A
O1031      C1032   1.335       .  A
C1032      C1033   1.388       .  A
C1033      H1039   1.082       .  S
O1034      C1035   1.329       .  A
C1035      C1036   1.397       .  A
C1036      H1040   1.082       .  S
C1041      C1046   1.381       .  A
C1041      C1042   1.400       .  A
C1041      O1047   1.316       .  A
C1042      C1043   1.399       .  A
C1042      H1053   1.082       .  S
C1043      C1052   1.358       .  A
C1043      C1044   1.380       .  A
C1044      C1045   1.407       .  A
C1044      O1050   1.321       .  A
C1045      C1046   1.406       .  A
C1045      H1054   1.082       .  S
C1046      C1049   1.367       .  A
O1047      C1048   1.329       .  A
C1048      C1049   1.393       .  A
C1049      H1055   1.082       .  S
O1050      C1051   1.332       .  A
C1051      C1052   1.390       .  A
C1052      H1056   1.083       .  S
C1057      C1062   1.380       .  A
C1057      C1058   1.399       .  A
C1057      O1063   1.316       .  A
C1058      C1059   1.399       .  A
C1058      H1069   1.083       .  S
C1059      C1068   1.356       .  A
C1059      C1060   1.379       .  A
C1060      C1061   1.416       .  A
C1060      O1066   1.331       .  A
C1061      C1062   1.416       .  A
C1061      H1070   1.082       .  S
C1062      C1065   1.377       .  A
O1063      C1064   1.329       .  A
C1064      C1065   1.398       .  A
C1065      H1071   1.082       .  S
O1066      C1067   1.338       .  A
C1067      C1068   1.391       .  A
C1068      H1072   1.083       .  S
C1073      C1078   1.380       .  A
C1073      C1074   1.397       .  A
C1073      O1079   1.312       .  A
C1074      C1075   1.396       .  A
C1074      H1085   1.083       .  S
C1075      C1084   1.355       .  A
C1075      C1076   1.380       .  A
C1076      C1077   1.411       .  A
C1076      O1082   1.325       .  A
C1077      C1078   1.409       .  A
C1077      H1086   1.082       .  S
C1078      C1081   1.372       .  A
O1079      C1080   1.328       .  A
C1080      C1081   1.395       .  A
C1081      H1087   1.082       .  S
O1082      C1083   1.334       .  A
C1083      C1084   1.387       .  A
C1084      H1088   1.083       .  S
C1089      C1094   1.380       .  A
C1089      C1090   1.406       .  A
C1089      O1095   1.324   1_554  A
C1090      C1091   1.407       .  A
C1090      H1101   1.082   1_554  S
C1091      C1100   1.364       .  A
C1091      C1092   1.380       .  A
C1092      C1093   1.403       .  A
C1092      O1098   1.321       .  A
C1093      C1094   1.404       .  A
C1093      H1102   1.082       .  S
C1094      C1097   1.360       .  A
O1095      C1096   1.332       .  A
C1096      C1097   1.392   1_556  A
C1097      H1103   1.083       .  S
O1098      C1099   1.331       .  A
C1099      C1100   1.394       .  A
C1100      H1104   1.082       .  S
C1105      C1110   1.381       .  A
C1105      C1106   1.406       .  A
C1105      O1111   1.324   1_554  A
C1106      C1107   1.406       .  A
C1106      H1117   1.083   1_554  S
C1107      C1116   1.363       .  A
C1107      C1108   1.381       .  A
C1108      C1109   1.400       .  A
C1108      O1114   1.318       .  A
C1109      C1110   1.400       .  A
C1109      H1118   1.083       .  S
C1110      C1113   1.356       .  A
O1111      C1112   1.332       .  A
C1112      C1113   1.389   1_556  A
C1113      H1119   1.083       .  S
O1114      C1115   1.329       .  A
C1115      C1116   1.394       .  A
C1116      H1120   1.083       .  S
C1121      C1126   1.380       .  A
C1121      C1122   1.409       .  A
C1121      O1127   1.327       .  A
C1122      C1123   1.410       .  A
C1122      H1133   1.082       .  S
C1123      C1132   1.367       .  A
C1123      C1124   1.380       .  A
C1124      C1125   1.403       .  A
C1124      O1130   1.321       .  A
C1125      C1126   1.403       .  A
C1125      H1134   1.082       .  S
C1126      C1129   1.358       .  A
O1127      C1128   1.334       .  A
C1128      C1129   1.392       .  A
C1129      H1135   1.083       .  S
O1130      C1131   1.331       .  A
C1131      C1132   1.396       .  A
C1132      H1136   1.082       .  S
C1137      C1142   1.380       .  A
C1137      C1138   1.412       .  A
C1137      O1143   1.326       .  A
C1138      C1139   1.411       .  A
C1138      H1149   1.082       .  S
C1139      C1148   1.375       .  A
C1139      C1140   1.380       .  A
C1140      C1141   1.399       .  A
C1140      O1146   1.313       .  A
C1141      C1142   1.398       .  A
C1141      H1150   1.083       .  S
C1142      C1145   1.358       .  A
O1143      C1144   1.335       .  A
C1144      C1145   1.389       .  A
C1145      H1151   1.083       .  S
O1146      C1147   1.330       .  A
C1147      C1148   1.395       .  A
C1148      H1152   1.082       .  S
C1153      C1158   1.379       .  A
C1153      C1154   1.416       .  A
C1153      O1159   1.332       .  A
C1154      C1155   1.416       .  A
C1154      H1165   1.082       .  S
C1155      C1164   1.376       .  A
C1155      C1156   1.380       .  A
C1156      C1157   1.396       .  A
C1156      O1162   1.314       .  A
C1157      C1158   1.396       .  A
C1157      H1166   1.082       .  S
C1158      C1161   1.350       .  A
O1159      C1160   1.338       .  A
C1160      C1161   1.390       .  A
C1161      H1167   1.083       .  S
O1162      C1163   1.327       .  A
C1163      C1164   1.399       .  A
C1164      H1168   1.082       .  S
C1169      C1174   1.381       .  A
C1169      C1170   1.399       .  A
C1169      O1175   1.318       .  A
C1170      C1171   1.400       .  A
C1170      H1181   1.082       .  S
C1171      C1180   1.354       .  A
C1171      C1172   1.380       .  A
C1172      C1173   1.409       .  A
C1172      O1178   1.327       .  A
C1173      C1174   1.410       .  A
C1173      H1182   1.082       .  S
C1174      C1177   1.367       .  A
O1175      C1176   1.329       .  A
C1176      C1177   1.396       .  A
C1177      H1183   1.082       .  S
O1178      C1179   1.334       .  A
C1179      C1180   1.389       .  A
C1180      H1184   1.083       .  S
C1185      C1190   1.380       .  A
C1185      C1186   1.400       .  A
C1185      O1191   1.314       .  A
C1186      C1187   1.398       .  A
C1186      H1197   1.082       .  S
C1187      C1196   1.359       .  A
C1187      C1188   1.380       .  A
C1188      C1189   1.410       .  A
C1188      O1194   1.323       .  A
C1189      C1190   1.409       .  A
C1189      H1198   1.082       .  S
C1190      C1193   1.372       .  A
O1191      C1192   1.329       .  A
C1192      C1193   1.395       .  A
C1193      H1199   1.082       .  S
O1194      C1195   1.334       .  A
C1195      C1196   1.390       .  A
C1196      H1200   1.083       .  S
C1201      C1206   1.380       .  A
C1201      C1202   1.411       .  A
C1201      O1207   1.323       .  A
C1202      C1203   1.410       .  A
C1202      H1213   1.082       .  S
C1203      C1212   1.373       .  A
C1203      C1204   1.381       .  A
C1204      C1205   1.397       .  A
C1204      O1210   1.311       .  A
C1205      C1206   1.395       .  A
C1205      H1214   1.082       .  S
C1206      C1209   1.355       .  A
O1207      C1208   1.335       .  A
C1208      C1209   1.387       .  A
C1209      H1215   1.083       .  S
O1210      C1211   1.328       .  A
C1211      C1212   1.395       .  A
C1212      H1216   1.082       .  S
C1217      C1222   1.380       .  A
C1217      C1218   1.410       .  A
C1217      O1223   1.326       .  A
C1218      C1219   1.410       .  A
C1218      H1229   1.082       .  S
C1219      C1228   1.370       .  A
C1219      C1220   1.381       .  A
C1220      C1221   1.399       .  A
C1220      O1226   1.316       .  A
C1221      C1222   1.399       .  A
C1221      H1230   1.082       .  S
C1222      C1225   1.355       .  A
O1223      C1224   1.334       .  A
C1224      C1225   1.390       .  A
C1225      H1231   1.083       .  S
O1226      C1227   1.329       .  A
C1227      C1228   1.395       .  A
C1228      H1232   1.082       .  S
C1233      C1238   1.380       .  A
C1233      C1234   1.411       .  A
C1233      O1239   1.327       .  A
C1234      C1235   1.411       .  A
C1234      H1245   1.082       .  S
C1235      C1244   1.369       .  A
C1235      C1236   1.381       .  A
C1236      C1237   1.400       .  A
C1236      O1242   1.318       .  A
C1237      C1238   1.400       .  A
C1237      H1246   1.082       .  S
C1238      C1241   1.357       .  A
O1239      C1240   1.335       .  A
C1240      C1241   1.389       .  A
C1241      H1247   1.082   1_545  S
O1242      C1243   1.329       .  A
C1243      C1244   1.397       .  A
C1244      H1248   1.082       .  S
C1249      C1254   1.379       .  A
C1249      C1250   1.398       .  A
C1249      O1255   1.313       .  A
C1250      C1251   1.397       .  A
C1250      H1261   1.083       .  S
C1251      C1260   1.356       .  A
C1251      C1252   1.379       .  A
C1252      C1253   1.416       .  A
C1252      O1258   1.329       .  A
C1253      C1254   1.415       .  A
C1253      H1262   1.082       .  S
C1254      C1257   1.378       .  A
O1255      C1256   1.329       .  A
C1256      C1257   1.398       .  A
C1257      H1263   1.082       .  S
O1258      C1259   1.338       .  A
C1259      C1260   1.390       .  A
C1260      H1264   1.083       .  S
C1265      C1270   1.379       .  A
C1265      C1266   1.415       .  A
C1265      O1271   1.330       .  A
C1266      C1267   1.414       .  A
C1266      H1277   1.082       .  S
C1267      C1276   1.375       .  A
C1267      C1268   1.380       .  A
C1268      C1269   1.400       .  A
C1268      O1274   1.316       .  A
C1269      C1270   1.399       .  A
C1269      H1278   1.082       .  S
C1270      C1273   1.357       .  A
O1271      C1272   1.337       .  A
C1272      C1273   1.390       .  A
C1273      H1279   1.083       .  S
O1274      C1275   1.329       .  A
C1275      C1276   1.397       .  A
C1276      H1280   1.082       .  S
C1281      C1286   1.380       .  A
C1281      C1282   1.398       .  A
C1281      O1287   1.314       .  A
C1282      C1283   1.397       .  A
C1282      H1293   1.083       .  S
C1283      C1292   1.355       .  A
C1283      C1284   1.380       .  A
C1284      C1285   1.411       .  A
C1284      O1290   1.325       .  A
C1285      C1286   1.410       .  A
C1285      H1294   1.082       .  S
C1286      C1289   1.372       .  A
O1287      C1288   1.329       .  A
C1288      C1289   1.395       .  A
C1289      H1295   1.082       .  S
O1290      C1291   1.334       .  A
C1291      C1292   1.389       .  A
C1292      H1296   1.083       .  S
C1297      C1302   1.380       .  A
C1297      C1298   1.410       .  A
C1297      O1303   1.324       .  A
C1298      C1299   1.409       .  A
C1298      H1309   1.082       .  S
C1299      C1308   1.370       .  A
C1299      C1300   1.381       .  A
C1300      C1301   1.400       .  A
C1300      O1306   1.315       .  A
C1301      C1302   1.398       .  A
C1301      H1310   1.082       .  S
C1302      C1305   1.357       .  A
O1303      C1304   1.334       .  A
C1304      C1305   1.390       .  A
C1305      H1311   1.083       .  S
O1306      C1307   1.329       .  A
C1307      C1308   1.394       .  A
C1308      H1312   1.082       .  S
C1313      C1318   1.380       .  A
C1313      C1314   1.404       .  A
C1313      O1319   1.318       .  A
C1314      C1315   1.402       .  A
C1314      H1325   1.082       .  S
C1315      C1324   1.363       .  A
C1315      C1316   1.380       .  A
C1316      C1317   1.409       .  A
C1316      O1322   1.322       .  A
C1317      C1318   1.407       .  A
C1317      H1326   1.082   1_545  S
C1318      C1321   1.369   1_545  A
O1319      C1320   1.331   1_545  A
C1320      C1321   1.393       .  A
C1321      H1327   1.082       .  S
O1322      C1323   1.334       .  A
C1323      C1324   1.391       .  A
C1324      H1328   1.082       .  S
C1329      C1334   1.380       .  A
C1329      C1330   1.411       .  A
C1329      O1335   1.328       .  A
C1330      C1331   1.411       .  A
C1330      H1341   1.081       .  S
C1331      C1340   1.370       .  A
C1331      C1332   1.381       .  A
C1332      C1333   1.397       .  A
C1332      O1338   1.316       .  A
C1333      C1334   1.398       .  A
C1333      H1342   1.082       .  S
C1334      C1337   1.352       .  A
O1335      C1336   1.335       .  A
C1336      C1337   1.391       .  A
C1337      H1343   1.083       .  S
O1338      C1339   1.328       .  A
C1339      C1340   1.395       .  A
C1340      H1344   1.082       .  S
C1345      C1350   1.380       .  A
C1345      C1346   1.399       .  A
C1345      O1351   1.314       .  A
C1346      C1347   1.398       .  A
C1346      H1357   1.082       .  S
C1347      C1356   1.357       .  A
C1347      C1348   1.379       .  A
C1348      C1349   1.415       .  A
C1348      O1354   1.328       .  A
C1349      C1350   1.413       .  A
C1349      H1358   1.081       .  S
C1350      C1353   1.376       .  A
O1351      C1352   1.330       .  A
C1352      C1353   1.397       .  A
C1353      H1359   1.082       .  S
O1354      C1355   1.337       .  A
C1355      C1356   1.390       .  A
C1356      H1360   1.082       .  S
C1361      C1366   1.380       .  A
C1361      C1362   1.396       .  A
C1361      O1367   1.312       .  A
C1362      C1363   1.395       .  A
C1362      H1373   1.083       .  S
C1363      C1372   1.354       .  A
C1363      C1364   1.380       .  A
C1364      C1365   1.412       .  A
C1364      O1370   1.326       .  A
C1365      C1366   1.411       .  A
C1365      H1374   1.082       .  S
C1366      C1369   1.373       .  A
O1367      C1368   1.327       .  A
C1368      C1369   1.397       .  A
C1369      H1375   1.082       .  S
O1370      C1371   1.335       .  A
C1371      C1372   1.385       .  A
C1372      H1376   1.083       .  S
C1377      C1382   1.379       .  A
C1377      C1378   1.412       .  A
C1377      O1383   1.324       .  A
C1378      C1379   1.410       .  A
C1378      H1389   1.082       .  S
C1379      C1388   1.375       .  A
C1379      C1380   1.380       .  A
C1380      C1381   1.400       .  A
C1380      O1386   1.312       .  A
C1381      C1382   1.398       .  A
C1381      H1390   1.082       .  S
C1382      C1385   1.359       .  A
O1383      C1384   1.335       .  A
C1384      C1385   1.390       .  A
C1385      H1391   1.083       .  S
O1386      C1387   1.330       .  A
C1387      C1388   1.395       .  A
C1388      H1392   1.082       .  S
C1393      C1398   1.380       .  A
C1393      C1394   1.408       .  A
C1393      O1399   1.326       .  A
C1394      C1395   1.409       .  A
C1394      H1405   1.082       .  S
C1395      C1404   1.366       .  A
C1395      C1396   1.381       .  A
C1396      C1397   1.399       .  A
C1396      O1402   1.317       .  A
C1397      C1398   1.399       .  A
C1397      H1406   1.082       .  S
C1398      C1401   1.355       .  A
O1399      C1400   1.334       .  A
C1400      C1401   1.391       .  A
C1401      H1407   1.083       .  S
O1402      C1403   1.329       .  A
C1403      C1404   1.395       .  A
C1404      H1408   1.082       .  S
C1409      C1414   1.381       .  A
C1409      C1410   1.395       .  A
C1409      O1415   1.312       .  A
C1410      C1411   1.394       .  A
C1410      H1421   1.083       .  S
C1411      C1420   1.350       .  A
C1411      C1412   1.379       .  A
C1412      C1413   1.412       .  A
C1412      O1418   1.329   1_455  A
C1413      C1414   1.413       .  A
C1413      H1422   1.082   1_455  S
C1414      C1417   1.372       .  A
O1415      C1416   1.326       .  A
C1416      C1417   1.396       .  A
C1417      H1423   1.082       .  S
O1418      C1419   1.336       .  A
C1419      C1420   1.389   1_655  A
C1420      H1424   1.083       .  S
C1425      C1430   1.380       .  A
C1425      C1426   1.406       .  A
C1425      O1431   1.324       .  A
C1426      C1427   1.407       .  A
C1426      H1437   1.081       .  S
C1427      C1436   1.364       .  A
C1427      C1428   1.380       .  A
C1428      C1429   1.409       .  A
C1428      O1434   1.327       .  A
C1429      C1430   1.410       .  A
C1429      H1438   1.081       .  S
C1430      C1433   1.367       .  A
O1431      C1432   1.333       .  A
C1432      C1433   1.395       .  A
C1433      H1439   1.082       .  S
O1434      C1435   1.335       .  A
C1435      C1436   1.393       .  A
C1436      H1440   1.082       .  S
C1441      C1446   1.380       .  A
C1441      C1442   1.406       .  A
C1441      O1447   1.321       .  A
C1442      C1443   1.405       .  A
C1442      H1453   1.082       .  S
C1443      C1452   1.366       .  A
C1443      C1444   1.380       .  A
C1444      C1445   1.409       .  A
C1444      O1450   1.323       .  A
C1445      C1446   1.407       .  A
C1445      H1454   1.082       .  S
C1446      C1449   1.368       .  A
O1447      C1448   1.332       .  A
C1448      C1449   1.394       .  A
C1449      H1455   1.082       .  S
O1450      C1451   1.334       .  A
C1451      C1452   1.392       .  A
C1452      H1456   1.082       .  S
C1457      C1462   1.380       .  A
C1457      C1458   1.407       .  A
C1457      O1463   1.322       .  A
C1458      C1459   1.406       .  A
C1458      H1469   1.082       .  S
C1459      C1468   1.368       .  A
C1459      C1460   1.380       .  A
C1460      C1461   1.404       .  A
C1460      O1466   1.318       .  A
C1461      C1462   1.402       .  A
C1461      H1470   1.082       .  S
C1462      C1465   1.363       .  A
O1463      C1464   1.332       .  A
C1464      C1465   1.391       .  A
C1465      H1471   1.082       .  S
O1466      C1467   1.331       .  A
C1467      C1468   1.393       .  A
C1468      H1472   1.082       .  S
C1473      C1478   1.380       .  A
C1473      C1474   1.405       .  A
C1473      O1479   1.321       .  A
C1474      C1475   1.404       .  A
C1474      H1485   1.082       .  S
C1475      C1484   1.362       .  A
C1475      C1476   1.380       .  A
C1476      C1477   1.409       .  A
C1476      O1482   1.325       .  A
C1477      C1478   1.409       .  A
C1477      H1486   1.082       .  S
C1478      C1481   1.368       .  A
O1479      C1480   1.331       .  A
C1480      C1481   1.394       .  A
C1481      H1487   1.082       .  S
O1482      C1483   1.334       .  A
C1483      C1484   1.393       .  A
C1484      H1488   1.082       .  S
C1489      C1494   1.380       .  A
C1489      C1490   1.406       .  A
C1489      O1495   1.322       .  A
C1490      C1491   1.405       .  A
C1490      H1501   1.083       .  S
C1491      C1500   1.366       .  A
C1491      C1492   1.380       .  A
C1492      C1493   1.406       .  A
C1492      O1498   1.321       .  A
C1493      C1494   1.406       .  A
C1493      H1502   1.083       .  S
C1494      C1497   1.365       .  A
O1495      C1496   1.332       .  A
C1496      C1497   1.393       .  A
C1497      H1503   1.083       .  S
O1498      C1499   1.333       .  A
C1499      C1500   1.392       .  A
C1500      H1504   1.083       .  S
C1505      C1510   1.380       .  A
C1505      C1506   1.406       .  A
C1505      O1511   1.321       .  A
C1506      C1507   1.405       .  A
C1506      H1517   1.083       .  S
C1507      C1516   1.366       .  A
C1507      C1508   1.379       .  A
C1508      C1509   1.408       .  A
C1508      O1514   1.322       .  A
C1509      C1510   1.407       .  A
C1509      H1518   1.083       .  S
C1510      C1513   1.369       .  A
O1511      C1512   1.332       .  A
C1512      C1513   1.393       .  A
C1513      H1519   1.083       .  S
O1514      C1515   1.334       .  A
C1515      C1516   1.392       .  A
C1516      H1520   1.083       .  S
C1521      C1526   1.380       .  A
C1521      C1522   1.409       .  A
C1521      O1527   1.324       .  A
C1522      C1523   1.409       .  A
C1522      H1533   1.083       .  S
C1523      C1532   1.367       .  A
C1523      C1524   1.380       .  A
C1524      C1525   1.402       .  A
C1524      O1530   1.320       .  A
C1525      C1526   1.402       .  A
C1525      H1534   1.083       .  S
C1526      C1529   1.361       .  A
O1527      C1528   1.335       .  A
C1528      C1529   1.390       .  A
C1529      H1535   1.083       .  S
O1530      C1531   1.330       .  A
C1531      C1532   1.395       .  A
C1532      H1536   1.083       .  S
C1537      C1542   1.380   1_556  A
C1537      C1538   1.406       .  A
C1537      O1543   1.322       .  A
C1538      C1539   1.406   1_556  A
C1538      H1549   1.082       .  S
C1539      C1548   1.365       .  A
C1539      C1540   1.380       .  A
C1540      C1541   1.404       .  A
C1540      O1546   1.320       .  A
C1541      C1542   1.403       .  A
C1541      H1550   1.082       .  S
C1542      C1545   1.362       .  A
O1543      C1544   1.332   1_556  A
C1544      C1545   1.391       .  A
C1545      H1551   1.082       .  S
O1546      C1547   1.331       .  A
C1547      C1548   1.393       .  A
C1548      H1552   1.082   1_554  S
C1553      C1558   1.379   1_545  A
C1553      C1554   1.408       .  A
C1553      O1559   1.324       .  A
C1554      C1555   1.408       .  A
C1554      H1565   1.082       .  S
C1555      C1564   1.368       .  A
C1555      C1556   1.379       .  A
C1556      C1557   1.409   1_545  A
C1556      O1562   1.324       .  A
C1557      C1558   1.408       .  A
C1557      H1566   1.082       .  S
C1558      C1561   1.368       .  A
O1559      C1560   1.334   1_545  A
C1560      C1561   1.394       .  A
C1561      H1567   1.082       .  S
O1562      C1563   1.334       .  A
C1563      C1564   1.394       .  A
C1564      H1568   1.082       .  S
C1569      C1574   1.380       .  A
C1569      C1570   1.405       .  A
C1569      O1575   1.319       .  A
C1570      C1571   1.404       .  A
C1570      H1581   1.082       .  S
C1571      C1580   1.363       .  A
C1571      C1572   1.381       .  A
C1572      C1573   1.403       .  A
C1572      O1578   1.318       .  A
C1573      C1574   1.402       .  A
C1573      H1582   1.082       .  S
C1574      C1577   1.362       .  A
O1575      C1576   1.331       .  A
C1576      C1577   1.390       .  A
C1577      H1583   1.082       .  S
O1578      C1579   1.330       .  A
C1579      C1580   1.392       .  A
C1580      H1584   1.082       .  S
C1585      C1590   1.379       .  A
C1585      C1586   1.409       .  A
C1585      O1591   1.324       .  A
C1586      C1587   1.409       .  A
C1586      H1597   1.083       .  S
C1587      C1596   1.369       .  A
C1587      C1588   1.380       .  A
C1588      C1589   1.406       .  A
C1588      O1594   1.322       .  A
C1589      C1590   1.406       .  A
C1589      H1598   1.083       .  S
C1590      C1593   1.365       .  A
O1591      C1592   1.334       .  A
C1592      C1593   1.393       .  A
C1593      H1599   1.083       .  S
O1594      C1595   1.333       .  A
C1595      C1596   1.395       .  A
C1596      H1600   1.083       .  S
C1601      C1606   1.380       .  A
C1601      C1602   1.407       .  A
C1601      O1607   1.322       .  A
C1602      C1603   1.406       .  A
C1602      H1613   1.083       .  S
C1603      C1612   1.365       .  A
C1603      C1604   1.380       .  A
C1604      C1605   1.405       .  A
C1604      O1610   1.322       .  A
C1605      C1606   1.405       .  A
C1605      H1614   1.083       .  S
C1606      C1609   1.364       .  A
O1607      C1608   1.333       .  A
C1608      C1609   1.391       .  A
C1609      H1615   1.083       .  S
O1610      C1611   1.332       .  A
C1611      C1612   1.393       .  A
C1612      H1616   1.083       .  S
C1617      C1622   1.379   1_455  A
C1617      C1618   1.410       .  A
C1617      O1623   1.325       .  A
C1618      C1619   1.409       .  A
C1618      H1629   1.082       .  S
C1619      C1628   1.369       .  A
C1619      C1620   1.379   1_455  A
C1620      C1621   1.409       .  A
C1620      O1626   1.324       .  A
C1621      C1622   1.408       .  A
C1621      H1630   1.082       .  S
C1622      C1625   1.368       .  A
O1623      C1624   1.335   1_455  A
C1624      C1625   1.395       .  A
C1625      H1631   1.082       .  S
O1626      C1627   1.334       .  A
C1627      C1628   1.395   1_655  A
C1628      H1632   1.082       .  S
C1633      C1638   1.381       .  A
C1633      C1634   1.401       .  A
C1633      O1639   1.317       .  A
C1634      C1635   1.400       .  A
C1634      H1645   1.082       .  S
C1635      C1644   1.358       .  A
C1635      C1636   1.380   1_565  A
C1636      C1637   1.406   1_545  A
C1636      O1642   1.322       .  A
C1637      C1638   1.406       .  A
C1637      H1646   1.082   1_565  S
C1638      C1641   1.365       .  A
O1639      C1640   1.329       .  A
C1640      C1641   1.393       .  A
C1641      H1647   1.082       .  S
O1642      C1643   1.332       .  A
C1643      C1644   1.390   1_545  A
C1644      H1648   1.082       .  S
C1649      C1654   1.380       .  A
C1649      C1650   1.410       .  A
C1649      O1655   1.327       .  A
C1650      C1651   1.411       .  A
C1650      H1661   1.081       .  S
C1651      C1660   1.370       .  A
C1651      C1652   1.380       .  A
C1652      C1653   1.402       .  A
C1652      O1658   1.319       .  A
C1653      C1654   1.402       .  A
C1653      H1662   1.082       .  S
C1654      C1657   1.358       .  A
O1655      C1656   1.335       .  A
C1656      C1657   1.392       .  A
C1657      H1663   1.082   1_455  S
O1658      C1659   1.330       .  A
C1659      C1660   1.397       .  A
C1660      H1664   1.082       .  S
C1665      C1670   1.380       .  A
C1665      C1666   1.411       .  A
C1665      O1671   1.326       .  A
C1666      C1667   1.410       .  A
C1666      H1677   1.082       .  S
C1667      C1676   1.371       .  A
C1667      C1668   1.380       .  A
C1668      C1669   1.396       .  A
C1668      O1674   1.313       .  A
C1669      C1670   1.396       .  A
C1669      H1678   1.083       .  S
C1670      C1673   1.352       .  A
O1671      C1672   1.334       .  A
C1672      C1673   1.388       .  A
C1673      H1679   1.083   1_455  S
O1674      C1675   1.328       .  A
C1675      C1676   1.395       .  A
C1676      H1680   1.082       .  S
C1681      C1686   1.379       .  A
C1681      C1682   1.415       .  A
C1681      O1687   1.330       .  A
C1682      C1683   1.415       .  A
C1682      H1693   1.082       .  S
C1683      C1692   1.376       .  A
C1683      C1684   1.380       .  A
C1684      C1685   1.398       .  A
C1684      O1690   1.315       .  A
C1685      C1686   1.398       .  A
C1685      H1694   1.083       .  S
C1686      C1689   1.354       .  A
O1687      C1688   1.338       .  A
C1688      C1689   1.390       .  A
C1689      H1695   1.083       .  S
O1690      C1691   1.329       .  A
C1691      C1692   1.398       .  A
C1692      H1696   1.082       .  S
C1697      C1702   1.380       .  A
C1697      C1698   1.396       .  A
C1697      O1703   1.313       .  A
C1698      C1699   1.395       .  A
C1698      H1709   1.083       .  S
C1699      C1708   1.351       .  A
C1699      C1700   1.379       .  A
C1700      C1701   1.416       .  A
C1700      O1706   1.332       .  A
C1701      C1702   1.416       .  A
C1701      H1710   1.082       .  S
C1702      C1705   1.378       .  A
O1703      C1704   1.328       .  A
C1704      C1705   1.399       .  A
C1705      H1711   1.082       .  S
O1706      C1707   1.338       .  A
C1707      C1708   1.390       .  A
C1708      H1712   1.083       .  S
C1713      C1718   1.380       .  A
C1713      C1714   1.401       .  A
C1713      O1719   1.319       .  A
C1714      C1715   1.401       .  A
C1714      H1725   1.082       .  S
C1715      C1724   1.357       .  A
C1715      C1716   1.380       .  A
C1716      C1717   1.409       .  A
C1716      O1722   1.326   1_565  A
C1717      C1718   1.410       .  A
C1717      H1726   1.082   1_565  S
C1718      C1721   1.367       .  A
O1719      C1720   1.330       .  A
C1720      C1721   1.396       .  A
C1721      H1727   1.082       .  S
O1722      C1723   1.334       .  A
C1723      C1724   1.390   1_545  A
C1724      H1728   1.082       .  S
C1729      C1734   1.381       .  A
C1729      C1730   1.401       .  A
C1729      O1735   1.319       .  A
C1730      C1731   1.402       .  A
C1730      H1741   1.083       .  S
C1731      C1740   1.358       .  A
C1731      C1732   1.380       .  A
C1732      C1733   1.408       .  A
C1732      O1738   1.325       .  A
C1733      C1734   1.408       .  A
C1733      H1742   1.083       .  S
C1734      C1737   1.366       .  A
O1735      C1736   1.330       .  A
C1736      C1737   1.395       .  A
C1737      H1743   1.083       .  S
O1738      C1739   1.333       .  A
C1739      C1740   1.392       .  A
C1740      H1744   1.083       .  S
C1745      C1750   1.380       .  A
C1745      C1746   1.397       .  A
C1745      O1751   1.313       .  A
C1746      C1747   1.397       .  A
C1746      H1757   1.082       .  S
C1747      C1756   1.353       .  A
C1747      C1748   1.379       .  A
C1748      C1749   1.415       .  A
C1748      O1754   1.330       .  A
C1749      C1750   1.414       .  A
C1749      H1758   1.081       .  S
C1750      C1753   1.375       .  A
O1751      C1752   1.328       .  A
C1752      C1753   1.397       .  A
C1753      H1759   1.082       .  S
O1754      C1755   1.337       .  A
C1755      C1756   1.390       .  A
C1756      H1760   1.082       .  S
C1761      C1766   1.379       .  A
C1761      C1762   1.417       .  A
C1761      O1767   1.332       .  A
C1762      C1763   1.417       .  A
C1762      H1773   1.082       .  S
C1763      C1772   1.378       .  A
C1763      C1764   1.380       .  A
C1764      C1765   1.397       .  A
C1764      O1770   1.314       .  A
C1765      C1766   1.397       .  A
C1765      H1774   1.083       .  S
C1766      C1769   1.353       .  A
O1767      C1768   1.339       .  A
C1768      C1769   1.389       .  A
C1769      H1775   1.083       .  S
O1770      C1771   1.328       .  A
C1771      C1772   1.399       .  A
C1772      H1776   1.082       .  S
C1777      C1782   1.380       .  A
C1777      C1778   1.406       .  A
C1777      O1783   1.321       .  A
C1778      C1779   1.405       .  A
C1778      H1789   1.083       .  S
C1779      C1788   1.365       .  A
C1779      C1780   1.380       .  A
C1780      C1781   1.406       .  A
C1780      O1786   1.321       .  A
C1781      C1782   1.405       .  A
C1781      H1790   1.083       .  S
C1782      C1785   1.366       .  A
O1783      C1784   1.333       .  A
C1784      C1785   1.392       .  A
C1785      H1791   1.083       .  S
O1786      C1787   1.332       .  A
C1787      C1788   1.393       .  A
C1788      H1792   1.083       .  S
C1793      C1798   1.380       .  A
C1793      C1794   1.399       .  A
C1793      O1799   1.313       .  A
C1794      C1795   1.397       .  A
C1794      H1805   1.082       .  S
C1795      C1804   1.357       .  A
C1795      C1796   1.380       .  A
C1796      C1797   1.412       .  A
C1796      O1802   1.326       .  A
C1797      C1798   1.411       .  A
C1797      H1806   1.082       .  S
C1798      C1801   1.374       .  A
O1799      C1800   1.329       .  A
C1800      C1801   1.396       .  A
C1801      H1807   1.082       .  S
O1802      C1803   1.335       .  A
C1803      C1804   1.389       .  A
C1804      H1808   1.083       .  S
C1809      C1814   1.380   1_655  A
C1809      C1810   1.410       .  A
C1809      O1815   1.327       .  A
C1810      C1811   1.410       .  A
C1810      H1821   1.082       .  S
C1811      C1820   1.368       .  A
C1811      C1812   1.380       .  A
C1812      C1813   1.405   1_655  A
C1812      O1818   1.322   1_655  A
C1813      C1814   1.405       .  A
C1813      H1822   1.082       .  S
C1814      C1817   1.362       .  A
O1815      C1816   1.335   1_655  A
C1816      C1817   1.392       .  A
C1817      H1823   1.082       .  S
O1818      C1819   1.332   1_455  A
C1819      C1820   1.396       .  A
C1820      H1824   1.082       .  S
C1825      C1830   1.380       .  A
C1825      C1826   1.403       .  A
C1825      O1831   1.322       .  A
C1826      C1827   1.404       .  A
C1826      H1837   1.082       .  S
C1827      C1836   1.359       .  A
C1827      C1828   1.380   1_554  A
C1828      C1829   1.411       .  A
C1828      O1834   1.329       .  A
C1829      C1830   1.412   1_556  A
C1829      H1838   1.082       .  S
C1830      C1833   1.369       .  A
O1831      C1832   1.332       .  A
C1832      C1833   1.397       .  A
C1833      H1839   1.082       .  S
O1834      C1835   1.335       .  A
C1835      C1836   1.393   1_556  A
C1836      H1840   1.083   1_455  S
C1841      C1846   1.380       .  A
C1841      C1842   1.407   1_565  A
C1841      O1847   1.322       .  A
C1842      C1843   1.406   1_545  A
C1842      H1853   1.082       .  S
C1843      C1852   1.365   1_565  A
C1843      C1844   1.380       .  A
C1844      C1845   1.406       .  A
C1844      O1850   1.322       .  A
C1845      C1846   1.405       .  A
C1845      H1854   1.082       .  S
C1846      C1849   1.365       .  A
O1847      C1848   1.333       .  A
C1848      C1849   1.392       .  A
C1849      H1855   1.082       .  S
O1850      C1851   1.332       .  A
C1851      C1852   1.393   1_565  A
C1852      H1856   1.082       .  S
C1857      C1862   1.380       .  A
C1857      C1858   1.400       .  A
C1857      O1863   1.318       .  A
C1858      C1859   1.400       .  A
C1858      H1869   1.082       .  S
C1859      C1868   1.356       .  A
C1859      C1860   1.380       .  A
C1860      C1861   1.413       .  A
C1860      O1866   1.329       .  A
C1861      C1862   1.414       .  A
C1861      H1870   1.082       .  S
C1862      C1865   1.374       .  A
O1863      C1864   1.330       .  A
C1864      C1865   1.398       .  A
C1865      H1871   1.082       .  S
O1866      C1867   1.336       .  A
C1867      C1868   1.389       .  A
C1868      H1872   1.083       .  S
C1873      C1878   1.380       .  A
C1873      C1874   1.411       .  A
C1873      O1879   1.325       .  A
C1874      C1875   1.410       .  A
C1874      H1885   1.082       .  S
C1875      C1884   1.373       .  A
C1875      C1876   1.380       .  A
C1876      C1877   1.399       .  A
C1876      O1882   1.314       .  A
C1877      C1878   1.398       .  A
C1877      H1886   1.082       .  S
C1878      C1881   1.357       .  A
O1879      C1880   1.334       .  A
C1880      C1881   1.388       .  A
C1881      H1887   1.083   1_545  S
O1882      C1883   1.329       .  A
C1883      C1884   1.396       .  A
C1884      H1888   1.082       .  S
C1889      C1894   1.380       .  A
C1889      C1890   1.407       .  A
C1889      O1895   1.323       .  A
C1890      C1891   1.407       .  A
C1890      H1901   1.082   1_554  S
C1891      C1900   1.366       .  A
C1891      C1892   1.380       .  A
C1892      C1893   1.407       .  A
C1892      O1898   1.324       .  A
C1893      C1894   1.407       .  A
C1893      H1902   1.082       .  S
C1894      C1897   1.366       .  A
O1895      C1896   1.333       .  A
C1896      C1897   1.393       .  A
C1897      H1903   1.082       .  S
O1898      C1899   1.333       .  A
C1899      C1900   1.394       .  A
C1900      H1904   1.082   1_554  S
C1905      C1910   1.380   1_565  A
C1905      C1906   1.408       .  A
C1905      O1911   1.325       .  A
C1906      C1907   1.408   1_565  A
C1906      H1917   1.082       .  S
C1907      C1916   1.366       .  A
C1907      C1908   1.380       .  A
C1908      C1909   1.402       .  A
C1908      O1914   1.318       .  A
C1909      C1910   1.402       .  A
C1909      H1918   1.082       .  S
C1910      C1913   1.358       .  A
O1911      C1912   1.333       .  A
C1912      C1913   1.392   1_565  A
C1913      H1919   1.083       .  S
O1914      C1915   1.331       .  A
C1915      C1916   1.394       .  A
C1916      H1920   1.082       .  S
C1921      C1926   1.380       .  A
C1921      C1922   1.407       .  A
C1921      O1927   1.323       .  A
C1922      C1923   1.407       .  A
C1922      H1933   1.082       .  S
C1923      C1932   1.368       .  A
C1923      C1924   1.380       .  A
C1924      C1925   1.406       .  A
C1924      O1930   1.321       .  A
C1925      C1926   1.405       .  A
C1925      H1934   1.083       .  S
C1926      C1929   1.365       .  A
O1927      C1928   1.333       .  A
C1928      C1929   1.393       .  A
C1929      H1935   1.083       .  S
O1930      C1931   1.333       .  A
C1931      C1932   1.393       .  A
C1932      H1936   1.082       .  S
C1937      C1942   1.380       .  A
C1937      C1938   1.396       .  A
C1937      O1943   1.311       .  A
C1938      C1939   1.395       .  A
C1938      H1949   1.082       .  S
C1939      C1948   1.353       .  A
C1939      C1940   1.379       .  A
C1940      C1941   1.414       .  A
C1940      O1946   1.328       .  A
C1941      C1942   1.413       .  A
C1941      H1950   1.082       .  S
C1942      C1945   1.376       .  A
O1943      C1944   1.328       .  A
C1944      C1945   1.397       .  A
C1945      H1951   1.082       .  S
O1946      C1947   1.336       .  A
C1947      C1948   1.388       .  A
C1948      H1952   1.083       .  S
C1953      C1958   1.380   1_545  A
C1953      C1954   1.406       .  A
C1953      O1959   1.322       .  A
C1954      C1955   1.405       .  A
C1954      H1965   1.082       .  S
C1955      C1964   1.366       .  A
C1955      C1956   1.379   1_545  A
C1956      C1957   1.409       .  A
C1956      O1962   1.323       .  A
C1957      C1958   1.408       .  A
C1957      H1966   1.082       .  S
C1958      C1961   1.368       .  A
O1959      C1960   1.332   1_545  A
C1960      C1961   1.394       .  A
C1961      H1967   1.082       .  S
O1962      C1963   1.335   1_565  A
C1963      C1964   1.392       .  A
C1964      H1968   1.082       .  S
C1969      C1974   1.380   1_455  A
C1969      C1970   1.400       .  A
C1969      O1975   1.316       .  A
C1970      C1971   1.399       .  A
C1970      H1981   1.083       .  S
C1971      C1980   1.359       .  A
C1971      C1972   1.379       .  A
C1972      C1973   1.411   1_455  A
C1972      O1978   1.324       .  A
C1973      C1974   1.409       .  A
C1973      H1982   1.083       .  S
C1974      C1977   1.371       .  A
O1975      C1976   1.329   1_455  A
C1976      C1977   1.395       .  A
C1977      H1983   1.083       .  S
O1978      C1979   1.335       .  A
C1979      C1980   1.390       .  A
C1980      H1984   1.083       .  S
C1985      C1990   1.380       .  A
C1985      C1986   1.406       .  A
C1985      O1991   1.322       .  A
C1986      C1987   1.405   1_455  A
C1986      H1997   1.082   1_455  S
C1987      C1996   1.366       .  A
C1987      C1988   1.380   1_655  A
C1988      C1989   1.406       .  A
C1988      O1994   1.320       .  A
C1989      C1990   1.405       .  A
C1989      H1998   1.083       .  S
C1990      C1993   1.365       .  A
O1991      C1992   1.332       .  A
C1992      C1993   1.394       .  A
C1993      H1999   1.083       .  S
O1994      C1995   1.333   1_455  A
C1995      C1996   1.392       .  A
C1996      H2000   1.082       .  S
C2001      C2006   1.380       .  A
C2001      C2002   1.408       .  A
C2001      O2007   1.323       .  A
C2002      C2003   1.407       .  A
C2002      H2013   1.082       .  S
C2003      C2012   1.367       .  A
C2003      C2004   1.380       .  A
C2004      C2005   1.406       .  A
C2004      O2010   1.322       .  A
C2005      C2006   1.405       .  A
C2005      H2014   1.082       .  S
C2006      C2009   1.365       .  A
O2007      C2008   1.333       .  A
C2008      C2009   1.393       .  A
C2009      H2015   1.082       .  S
O2010      C2011   1.332       .  A
C2011      C2012   1.394       .  A
C2012      H2016   1.082       .  S
C2017      C2022   1.380       .  A
C2017      C2018   1.400       .  A
C2017      O2023   1.315       .  A
C2018      C2019   1.399       .  A
C2018      H2029   1.082       .  S
C2019      C2028   1.358       .  A
C2019      C2020   1.380       .  A
C2020      C2021   1.410       .  A
C2020      O2026   1.324       .  A
C2021      C2022   1.409       .  A
C2021      H2030   1.082       .  S
C2022      C2025   1.371       .  A
O2023      C2024   1.330       .  A
C2024      C2025   1.394       .  A
C2025      H2031   1.082       .  S
O2026      C2027   1.334       .  A
C2027      C2028   1.390       .  A
C2028      H2032   1.083       .  S
C2033      C2038   1.380       .  A
C2033      C2034   1.405       .  A
C2033      O2039   1.321       .  A
C2034      C2035   1.405       .  A
C2034      H2045   1.082       .  S
C2035      C2044   1.364       .  A
C2035      C2036   1.380       .  A
C2036      C2037   1.405       .  A
C2036      O2042   1.321       .  A
C2037      C2038   1.404       .  A
C2037      H2046   1.082       .  S
C2038      C2041   1.364       .  A
O2039      C2040   1.332       .  A
C2040      C2041   1.391       .  A
C2041      H2047   1.082       .  S
O2042      C2043   1.332       .  A
C2043      C2044   1.392       .  A
C2044      H2048   1.082       .  S
C2049      C2054   1.380       .  A
C2049      C2050   1.404       .  A
C2049      O2055   1.321       .  A
C2050      C2051   1.404       .  A
C2050      H2061   1.083       .  S
C2051      C2060   1.362       .  A
C2051      C2052   1.380       .  A
C2052      C2053   1.407       .  A
C2052      O2058   1.323       .  A
C2053      C2054   1.407       .  A
C2053      H2062   1.083       .  S
C2054      C2057   1.365       .  A
O2055      C2056   1.332       .  A
C2056      C2057   1.393       .  A
C2057      H2063   1.083       .  S
O2058      C2059   1.333       .  A
C2059      C2060   1.392       .  A
C2060      H2064   1.083       .  S
C2065      C2070   1.380   1_565  A
C2065      C2066   1.407       .  A
C2065      O2071   1.325       .  A
C2066      C2067   1.408   1_565  A
C2066      H2077   1.081       .  S
C2067      C2076   1.365       .  A
C2067      C2068   1.380       .  A
C2068      C2069   1.402       .  A
C2068      O2074   1.320       .  A
C2069      C2070   1.403       .  A
C2069      H2078   1.081       .  S
C2070      C2073   1.358   1_556  A
O2071      C2072   1.333       .  A
C2072      C2073   1.392   1_566  A
C2073      H2079   1.082       .  S
O2074      C2075   1.331       .  A
C2075      C2076   1.394       .  A
C2076      H2080   1.082       .  S
C2081      C2086   1.380       .  A
C2081      C2082   1.398       .  A
C2081      O2087   1.314       .  A
C2082      C2083   1.397       .  A
C2082      H2093   1.083       .  S
C2083      C2092   1.354       .  A
C2083      C2084   1.379       .  A
C2084      C2085   1.412       .  A
C2084      O2090   1.327       .  A
C2085      C2086   1.412       .  A
C2085      H2094   1.082       .  S
C2086      C2089   1.373       .  A
O2087      C2088   1.328       .  A
C2088      C2089   1.395       .  A
C2089      H2095   1.082       .  S
O2090      C2091   1.336       .  A
C2091      C2092   1.389       .  A
C2092      H2096   1.083       .  S
C2097      C2102   1.380   1_556  A
C2097      C2098   1.403       .  A
C2097      O2103   1.317       .  A
C2098      C2099   1.401       .  A
C2098      H2109   1.082       .  S
C2099      C2108   1.361       .  A
C2099      C2100   1.380       .  A
C2100      C2101   1.408   1_556  A
C2100      O2106   1.322       .  A
C2101      C2102   1.407       .  A
C2101      H2110   1.082       .  S
C2102      C2105   1.369       .  A
O2103      C2104   1.331   1_556  A
C2104      C2105   1.394       .  A
C2105      H2111   1.082       .  S
O2106      C2107   1.333       .  A
C2107      C2108   1.392       .  A
C2108      H2112   1.083       .  S
C2113      C2118   1.379       .  A
C2113      C2114   1.415       .  A
C2113      O2119   1.330       .  A
C2114      C2115   1.415       .  A
C2114      H2125   1.082       .  S
C2115      C2124   1.376       .  A
C2115      C2116   1.380       .  A
C2116      C2117   1.399       .  A
C2116      O2122   1.315       .  A
C2117      C2118   1.398       .  A
C2117      H2126   1.082       .  S
C2118      C2121   1.355       .  A
O2119      C2120   1.337       .  A
C2120      C2121   1.390       .  A
C2121      H2127   1.083       .  S
O2122      C2123   1.329       .  A
C2123      C2124   1.398       .  A
C2124      H2128   1.082       .  S
C2129      C2134   1.380       .  A
C2129      C2130   1.408       .  A
C2129      O2135   1.326       .  A
C2130      C2131   1.408       .  A
C2130      H2141   1.082       .  S
C2131      C2140   1.365       .  A
C2131      C2132   1.381       .  A
C2132      C2133   1.400       .  A
C2132      O2138   1.319       .  A
C2133      C2134   1.401       .  A
C2133      H2142   1.083       .  S
C2134      C2137   1.356       .  A
O2135      C2136   1.333       .  A
C2136      C2137   1.391       .  A
C2137      H2143   1.083   1_545  S
O2138      C2139   1.330       .  A
C2139      C2140   1.394       .  A
C2140      H2144   1.082       .  S
C2145      C2150   1.380       .  A
C2145      C2146   1.397       .  A
C2145      O2151   1.314       .  A
C2146      C2147   1.397       .  A
C2146      H2157   1.083       .  S
C2147      C2156   1.353       .  A
C2147      C2148   1.379       .  A
C2148      C2149   1.413       .  A
C2148      O2154   1.329       .  A
C2149      C2150   1.413       .  A
C2149      H2158   1.082       .  S
C2150      C2153   1.374       .  A
O2151      C2152   1.328       .  A
C2152      C2153   1.396       .  A
C2153      H2159   1.082       .  S
O2154      C2155   1.336       .  A
C2155      C2156   1.389       .  A
C2156      H2160   1.083       .  S
C2161      C2166   1.381       .  A
C2161      C2162   1.397       .  A
C2161      O2167   1.313       .  A
C2162      C2163   1.396       .  A
C2162      H2173   1.083       .  S
C2163      C2172   1.354       .  A
C2163      C2164   1.380       .  A
C2164      C2165   1.410       .  A
C2164      O2170   1.324       .  A
C2165      C2166   1.409       .  A
C2165      H2174   1.082       .  S
C2166      C2169   1.370       .  A
O2167      C2168   1.328       .  A
C2168      C2169   1.395       .  A
C2169      H2175   1.082       .  S
O2170      C2171   1.334       .  A
C2171      C2172   1.388       .  A
C2172      H2176   1.083       .  S
C2177      C2182   1.380       .  A
C2177      C2178   1.411       .  A
C2177      O2183   1.327       .  A
C2178      C2179   1.410       .  A
C2178      H2189   1.081   1_556  S
C2179      C2188   1.370   1_556  A
C2179      C2180   1.380       .  A
C2180      C2181   1.399       .  A
C2180      O2186   1.316       .  A
C2181      C2182   1.399       .  A
C2181      H2190   1.082       .  S
C2182      C2185   1.356       .  A
O2183      C2184   1.335       .  A
C2184      C2185   1.390       .  A
C2185      H2191   1.082       .  S
O2186      C2187   1.329   1_556  A
C2187      C2188   1.395       .  A
C2188      H2192   1.082       .  S
C2193      C2198   1.380       .  A
C2193      C2194   1.408       .  A
C2193      O2199   1.320       .  A
C2194      C2195   1.406       .  A
C2194      H2205   1.082       .  S
C2195      C2204   1.370       .  A
C2195      C2196   1.380       .  A
C2196      C2197   1.398       .  A
C2196      O2202   1.311       .  A
C2197      C2198   1.396       .  A
C2197      H2206   1.083       .  S
C2198      C2201   1.357       .  A
O2199      C2200   1.333       .  A
C2200      C2201   1.388       .  A
C2201      H2207   1.083       .  S
O2202      C2203   1.328       .  A
C2203      C2204   1.393       .  A
C2204      H2208   1.082       .  S
C2209      C2214   1.381       .  A
C2209      C2210   1.400       .  A
C2209      O2215   1.318       .  A
C2210      C2211   1.400       .  A
C2210      H2221   1.083       .  S
C2211      C2220   1.355       .  A
C2211      C2212   1.380       .  A
C2212      C2213   1.412       .  A
C2212      O2218   1.328       .  A
C2213      C2214   1.412       .  A
C2213      H2222   1.082       .  S
C2214      C2217   1.371       .  A
O2215      C2216   1.329       .  A
C2216      C2217   1.395       .  A
C2217      H2223   1.082       .  S
O2218      C2219   1.335       .  A
C2219      C2220   1.391       .  A
C2220      H2224   1.083       .  S
C2225      C2230   1.380       .  A
C2225      C2226   1.410       .  A
C2225      O2231   1.324       .  A
C2226      C2227   1.409       .  A
C2226      H2237   1.082       .  S
C2227      C2236   1.372       .  A
C2227      C2228   1.380       .  A
C2228      C2229   1.398       .  A
C2228      O2234   1.312       .  A
C2229      C2230   1.396       .  A
C2229      H2238   1.083       .  S
C2230      C2233   1.356       .  A
O2231      C2232   1.335       .  A
C2232      C2233   1.388       .  A
C2233      H2239   1.083       .  S
O2234      C2235   1.328       .  A
C2235      C2236   1.395       .  A
C2236      H2240   1.082       .  S
C2241      C2246   1.380       .  A
C2241      C2242   1.407       .  A
C2241      O2247   1.323       .  A
C2242      C2243   1.406       .  A
C2242      H2253   1.082       .  S
C2243      C2252   1.366       .  A
C2243      C2244   1.380       .  A
C2244      C2245   1.404       .  A
C2244      O2250   1.320       .  A
C2245      C2246   1.404       .  A
C2245      H2254   1.082       .  S
C2246      C2249   1.362       .  A
O2247      C2248   1.332       .  A
C2248      C2249   1.392       .  A
C2249      H2255   1.082       .  S
O2250      C2251   1.332       .  A
C2251      C2252   1.393       .  A
C2252      H2256   1.082       .  S
C2257      C2262   1.380       .  A
C2257      C2258   1.405       .  A
C2257      O2263   1.322       .  A
C2258      C2259   1.405       .  A
C2258      H2269   1.083       .  S
C2259      C2268   1.362       .  A
C2259      C2260   1.379       .  A
C2260      C2261   1.411       .  A
C2260      O2266   1.327       .  A
C2261      C2262   1.411       .  A
C2261      H2270   1.083       .  S
C2262      C2265   1.369       .  A
O2263      C2264   1.332       .  A
C2264      C2265   1.395       .  A
C2265      H2271   1.082       .  S
O2266      C2267   1.335       .  A
C2267      C2268   1.393       .  A
C2268      H2272   1.083       .  S
C2273      C2278   1.379       .  A
C2273      C2274   1.398       .  A
C2273      O2279   1.312       .  A
C2274      C2275   1.396       .  A
C2274      H2285   1.083       .  S
C2275      C2284   1.354       .  A
C2275      C2276   1.379       .  A
C2276      C2277   1.416       .  A
C2276      O2282   1.330       .  A
C2277      C2278   1.415       .  A
C2277      H2286   1.082       .  S
C2278      C2281   1.379       .  A
O2279      C2280   1.329       .  A
C2280      C2281   1.399       .  A
C2281      H2287   1.082       .  S
O2282      C2283   1.338       .  A
C2283      C2284   1.389       .  A
C2284      H2288   1.083       .  S
C2289      C2294   1.380       .  A
C2289      C2290   1.403       .  A
C2289      O2295   1.319       .  A
C2290      C2291   1.402       .  A
C2290      H2301   1.082       .  S
C2291      C2300   1.360       .  A
C2291      C2292   1.380   1_554  A
C2292      C2293   1.408       .  A
C2292      O2298   1.323       .  A
C2293      C2294   1.408   1_556  A
C2293      H2302   1.082       .  S
C2294      C2297   1.368       .  A
O2295      C2296   1.331       .  A
C2296      C2297   1.395       .  A
C2297      H2303   1.082       .  S
O2298      C2299   1.333       .  A
C2299      C2300   1.391   1_556  A
C2300      H2304   1.082   1_655  S
C2305      C2310   1.380       .  A
C2305      C2306   1.399       .  A
C2305      O2311   1.314       .  A
C2306      C2307   1.397       .  A
C2306      H2317   1.083       .  S
C2307      C2316   1.356       .  A
C2307      C2308   1.380       .  A
C2308      C2309   1.412       .  A
C2308      O2314   1.326       .  A
C2309      C2310   1.411       .  A
C2309      H2318   1.083       .  S
C2310      C2313   1.374       .  A
O2311      C2312   1.330       .  A
C2312      C2313   1.397       .  A
C2313      H2319   1.082       .  S
O2314      C2315   1.335       .  A
C2315      C2316   1.388       .  A
C2316      H2320   1.083   1_655  S
C2321      C2326   1.381       .  A
C2321      C2322   1.399       .  A
C2321      O2327   1.317       .  A
C2322      C2323   1.399       .  A
C2322      H2333   1.082       .  S
C2323      C2332   1.355       .  A
C2323      C2324   1.380   1_655  A
C2324      C2325   1.407       .  A
C2324      O2330   1.325       .  A
C2325      C2326   1.408   1_455  A
C2325      H2334   1.082       .  S
C2326      C2329   1.364       .  A
O2327      C2328   1.329       .  A
C2328      C2329   1.395       .  A
C2329      H2335   1.082       .  S
O2330      C2331   1.333       .  A
C2331      C2332   1.390   1_455  A
C2332      H2336   1.082       .  S
C2337      C2342   1.380       .  A
C2337      C2338   1.409       .  A
C2337      O2343   1.324       .  A
C2338      C2339   1.408       .  A
C2338      H2349   1.082       .  S
C2339      C2348   1.371       .  A
C2339      C2340   1.380       .  A
C2340      C2341   1.399       .  A
C2340      O2346   1.314       .  A
C2341      C2342   1.398       .  A
C2341      H2350   1.082       .  S
C2342      C2345   1.357       .  A
O2343      C2344   1.333       .  A
C2344      C2345   1.389       .  A
C2345      H2351   1.083   1_554  S
O2346      C2347   1.330       .  A
C2347      C2348   1.394       .  A
C2348      H2352   1.082       .  S
C2353      C2358   1.380       .  A
C2353      C2354   1.402       .  A
C2353      O2359   1.316       .  A
C2354      C2355   1.400       .  A
C2354      H2365   1.084       .  S
C2355      C2364   1.360       .  A
C2355      C2356   1.379       .  A
C2356      C2357   1.411       .  A
C2356      O2362   1.325       .  A
C2357      C2358   1.410       .  A
C2357      H2366   1.083       .  S
C2358      C2361   1.373       .  A
O2359      C2360   1.330       .  A
C2360      C2361   1.396       .  A
C2361      H2367   1.083       .  S
O2362      C2363   1.336       .  A
C2363      C2364   1.391       .  A
C2364      H2368   1.083       .  S
C2369      C2374   1.379       .  A
C2369      C2370   1.416       .  A
C2369      O2375   1.329       .  A
C2370      C2371   1.415       .  A
C2370      H2381   1.082       .  S
C2371      C2380   1.379       .  A
C2371      C2372   1.379       .  A
C2372      C2373   1.399       .  A
C2372      O2378   1.313       .  A
C2373      C2374   1.397       .  A
C2373      H2382   1.083       .  S
C2374      C2377   1.356       .  A
O2375      C2376   1.338       .  A
C2376      C2377   1.389       .  A
C2377      H2383   1.083       .  S
O2378      C2379   1.329       .  A
C2379      C2380   1.399       .  A
C2380      H2384   1.082       .  S
C2385      C2390   1.381       .  A
C2385      C2386   1.396       .  A
C2385      O2391   1.310       .  A
C2386      C2387   1.394       .  A
C2386      H2397   1.083       .  S
C2387      C2396   1.354       .  A
C2387      C2388   1.380       .  A
C2388      C2389   1.411       .  A
C2388      O2394   1.324       .  A
C2389      C2390   1.409       .  A
C2389      H2398   1.083       .  S
C2390      C2393   1.372       .  A
O2391      C2392   1.327       .  A
C2392      C2393   1.395       .  A
C2393      H2399   1.082       .  S
O2394      C2395   1.335       .  A
C2395      C2396   1.388       .  A
C2396      H2400   1.083       .  S
C2401      C2406   1.380       .  A
C2401      C2402   1.413       .  A
C2401      O2407   1.327       .  A
C2402      C2403   1.412       .  A
C2402      H2413   1.082       .  S
C2403      C2412   1.374       .  A
C2403      C2404   1.380       .  A
C2404      C2405   1.401       .  A
C2404      O2410   1.316       .  A
C2405      C2406   1.400       .  A
C2405      H2414   1.082       .  S
C2406      C2409   1.359       .  A
O2407      C2408   1.335       .  A
C2408      C2409   1.389       .  A
C2409      H2415   1.083       .  S
O2410      C2411   1.330       .  A
C2411      C2412   1.396       .  A
C2412      H2416   1.082       .  S
C2417      C2422   1.380       .  A
C2417      C2418   1.412       .  A
C2417      O2423   1.326       .  A
C2418      C2419   1.411   1_655  A
C2418      H2429   1.082   1_655  S
C2419      C2428   1.374       .  A
C2419      C2420   1.380   1_455  A
C2420      C2421   1.397       .  A
C2420      O2426   1.312       .  A
C2421      C2422   1.396       .  A
C2421      H2430   1.082       .  S
C2422      C2425   1.354       .  A
O2423      C2424   1.335       .  A
C2424      C2425   1.388       .  A
C2425      H2431   1.083       .  S
O2426      C2427   1.328   1_655  A
C2427      C2428   1.396       .  A
C2428      H2432   1.082       .  S
C2433      C2438   1.380       .  A
C2433      C2434   1.396       .  A
C2433      O2439   1.312       .  A
C2434      C2435   1.395       .  A
C2434      H2445   1.082       .  S
C2435      C2444   1.351       .  A
C2435      C2436   1.378       .  A
C2436      C2437   1.416       .  A
C2436      O2442   1.331       .  A
C2437      C2438   1.416       .  A
C2437      H2446   1.082       .  S
C2438      C2441   1.378       .  A
O2439      C2440   1.327       .  A
C2440      C2441   1.399       .  A
C2441      H2447   1.082       .  S
O2442      C2443   1.338       .  A
C2443      C2444   1.389       .  A
C2444      H2448   1.083       .  S
C2449      C2454   1.380       .  A
C2449      C2450   1.409       .  A
C2449      O2455   1.322       .  A
C2450      C2451   1.407       .  A
C2450      H2461   1.083       .  S
C2451      C2460   1.371       .  A
C2451      C2452   1.380       .  A
C2452      C2453   1.400       .  A
C2452      O2458   1.313       .  A
C2453      C2454   1.398       .  A
C2453      H2462   1.083       .  S
C2454      C2457   1.359       .  A
O2455      C2456   1.333       .  A
C2456      C2457   1.389       .  A
C2457      H2463   1.083       .  S
O2458      C2459   1.329       .  A
C2459      C2460   1.393       .  A
C2460      H2464   1.082       .  S
C2465      C2470   1.380       .  A
C2465      C2466   1.399       .  A
C2465      O2471   1.314       .  A
C2466      C2467   1.398       .  A
C2466      H2477   1.083       .  S
C2467      C2476   1.358       .  A
C2467      C2468   1.380       .  A
C2468      C2469   1.410       .  A
C2468      O2474   1.324       .  A
C2469      C2470   1.409       .  A
C2469      H2478   1.082       .  S
C2470      C2473   1.372       .  A
O2471      C2472   1.329       .  A
C2472      C2473   1.395       .  A
C2473      H2479   1.082       .  S
O2474      C2475   1.335       .  A
C2475      C2476   1.389       .  A
C2476      H2480   1.083       .  S
C2481      C2486   1.379       .  A
C2481      C2482   1.414       .  A
C2481      O2487   1.330       .  A
C2482      C2483   1.415       .  A
C2482      H2493   1.082       .  S
C2483      C2492   1.375       .  A
C2483      C2484   1.380       .  A
C2484      C2485   1.395       .  A
C2484      O2490   1.312       .  A
C2485      C2486   1.394       .  A
C2485      H2494   1.082       .  S
C2486      C2489   1.349       .  A
O2487      C2488   1.337       .  A
C2488      C2489   1.389       .  A
C2489      H2495   1.083       .  S
O2490      C2491   1.327       .  A
C2491      C2492   1.398       .  A
C2492      H2496   1.082       .  S
C2497      C2502   1.380       .  A
C2497      C2498   1.400       .  A
C2497      O2503   1.313       .  A
C2498      C2499   1.398       .  A
C2498      H2509   1.082       .  S
C2499      C2508   1.359       .  A
C2499      C2500   1.379       .  A
C2500      C2501   1.412       .  A
C2500      O2506   1.324       .  A
C2501      C2502   1.410       .  A
C2501      H2510   1.082       .  S
C2502      C2505   1.374       .  A
O2503      C2504   1.330       .  A
C2504      C2505   1.395       .  A
C2505      H2511   1.082       .  S
O2506      C2507   1.335       .  A
C2507      C2508   1.389       .  A
C2508      H2512   1.083       .  S
C2513      C2518   1.379       .  A
C2513      C2514   1.413       .  A
C2513      O2519   1.328       .  A
C2514      C2515   1.413       .  A
C2514      H2525   1.082       .  S
C2515      C2524   1.372       .  A
C2515      C2516   1.381       .  A
C2516      C2517   1.398       .  A
C2516      O2522   1.316       .  A
C2517      C2518   1.398       .  A
C2517      H2526   1.082       .  S
C2518      C2521   1.355       .  A
O2519      C2520   1.336       .  A
C2520      C2521   1.389       .  A
C2521      H2527   1.083       .  S
O2522      C2523   1.328       .  A
C2523      C2524   1.396       .  A
C2524      H2528   1.082       .  S
C2529      C2534   1.381       .  A
C2529      C2530   1.398       .  A
C2529      O2535   1.316       .  A
C2530      C2531   1.398       .  A
C2530      H2541   1.083       .  S
C2531      C2540   1.353       .  A
C2531      C2532   1.380       .  A
C2532      C2533   1.409       .  A
C2532      O2538   1.326       .  A
C2533      C2534   1.409       .  A
C2533      H2542   1.082       .  S
C2534      C2537   1.368       .  A
O2535      C2536   1.329       .  A
C2536      C2537   1.395       .  A
C2537      H2543   1.082       .  S
O2538      C2539   1.333       .  A
C2539      C2540   1.390       .  A
C2540      H2544   1.083       .  S
C2545      C2550   1.379       .  A
C2545      C2546   1.416       .  A
C2545      O2551   1.330       .  A
C2546      C2547   1.415       .  A
C2546      H2557   1.082       .  S
C2547      C2556   1.378       .  A
C2547      C2548   1.380       .  A
C2548      C2549   1.396       .  A
C2548      O2554   1.311       .  A
C2549      C2550   1.394       .  A
C2549      H2558   1.082       .  S
C2550      C2553   1.352       .  A
O2551      C2552   1.338       .  A
C2552      C2553   1.388       .  A
C2553      H2559   1.083       .  S
O2554      C2555   1.328       .  A
C2555      C2556   1.399       .  A
C2556      H2560   1.082       .  S
C2561      C2566   1.381       .  A
C2561      C2562   1.400       .  A
C2561      O2567   1.319       .  A
C2562      C2563   1.401       .  A
C2562      H2573   1.082       .  S
C2563      C2572   1.356       .  A
C2563      C2564   1.380       .  A
C2564      C2565   1.407       .  A
C2564      O2570   1.325       .  A
C2565      C2566   1.408       .  A
C2565      H2574   1.082       .  S
C2566      C2569   1.364       .  A
O2567      C2568   1.330       .  A
C2568      C2569   1.394       .  A
C2569      H2575   1.082       .  S
O2570      C2571   1.333       .  A
C2571      C2572   1.391       .  A
C2572      H2576   1.083       .  S
