geometry optimzed in LAMMPS
_audit_creation_date              2020-11-30 
_audit_creation_method            'lammps2cif' 
_symmetry_space_group_name_H-M    'P1' 
_symmetry_Int_Tables_number       1 
_symmetry_cell_setting            triclinic 
loop_ 
_symmetry_equiv_pos_as_xyz 
  x,y,z 
_cell_length_a                    30.29367443 
_cell_length_b                    30.536745380461404 
_cell_length_c                    29.590695536410458 
_cell_angle_alpha                 90.81429426651567 
_cell_angle_beta                  87.04413737184592 
_cell_angle_gamma                 90.76810398052307 
loop_ 
_atom_site_label 
_atom_site_type_symbol 
_atom_site_fract_x 
_atom_site_fract_y 
_atom_site_fract_z 
_atom_site_charge 
O1          O  0.60492492  0.57380327  0.62786014    -0.81900
O2          O  0.72295460  0.66802539  0.51010122    -0.66600
O3          O  0.65889486  0.62103344  0.56280175    -1.13200
C4          C  0.78277562  0.55449763  0.62412028     1.05000
O5          O  0.78724220  0.68449537  0.53872450    -0.79800
O6          O  0.79568174  0.59756813  0.53218504    -0.67300
Ni7        Ni  0.59771990  0.61654729  0.58051768     1.34900
C8          C  0.76529071  0.57902866  0.51071251     0.83800
O9          O  0.64540605  0.70768220  0.54075010    -0.80300
O10         O  0.58639333  0.66088870  0.53702820    -0.90600
C11         C  0.76403518  0.67947722  0.50447681     0.83300
O12         O  0.59223814  0.66218247  0.62403359    -0.68800
O13         O  0.80105566  0.59237438  0.62254219    -0.88100
C14         C  0.61930665  0.68964066  0.63932598     0.84200
C15         C  0.60601058  0.69780205  0.52952889     1.05700
H16         H  0.72828579  0.64379566  0.62985722     0.37500
O17         O  0.73047275  0.63717518  0.59785690    -1.10700
O18         O  0.72587067  0.57500189  0.52700990    -0.67400
Ni19       Ni  0.70042794  0.58256210  0.58746362     1.26300
O20         O  0.66052639  0.69005625  0.62760525    -0.67600
O21         O  0.74447726  0.54572161  0.61038650    -0.79900
C22         C  0.63450237  0.57140056  0.65703218     0.83500
O23         O  0.67360444  0.58549444  0.64806843    -0.67100
Ni24       Ni  0.79235120  0.63888980  0.58180036     1.27400
Ni25       Ni  0.68999799  0.67521611  0.56925684     1.26100
H26         H  0.65912556  0.61490542  0.53072948     0.38100
O27         O  0.99197057  0.65428688  0.21996128    -0.81900
O28         O  0.87557947  0.57176265  0.34080492    -0.66600
O29         O  0.92696846  0.61387106  0.27764046    -1.13200
C30         C  0.01109548  0.66940774  0.39881316     1.05000
O31         O  0.90312043  0.55113505  0.40516250    -0.79800
O32         O  0.90610708  0.63726099  0.41716688    -0.67300
Ni33       Ni  0.94174555  0.61474154  0.21411975     1.34900
C34         C  0.89054581  0.66366673  0.38966392     0.83800
O35         O  0.89506060  0.52829230  0.26237652    -0.80300
O36         O  0.89261745  0.57574637  0.20435265    -0.90600
C37         C  0.87025265  0.55889745  0.38138414     0.83300
O38         O  0.97852263  0.56361745  0.20653156    -0.68800
O39         O  0.99592790  0.63686464  0.42203960    -0.88100
C40         C  0.99135503  0.53593027  0.23459442     0.84200
C41         C  0.88158632  0.53974682  0.22377964     1.05700
H42         H  0.99321725  0.58305957  0.34580798     0.37500
O43         O  0.96304069  0.59333292  0.34897422    -1.10700
O44         O  0.90893007  0.67027985  0.34988622    -0.67400
Ni45       Ni  0.96299582  0.64650767  0.31758902     1.26300
O46         O  0.98360722  0.54070467  0.27678579    -0.67600
O47         O  0.00026840  0.67705336  0.35857767    -0.79900
C48         C  0.99351313  0.69013896  0.24281052     0.83500
O49         O  0.96859568  0.69586090  0.27855832    -0.67100
Ni50       Ni  0.95014889  0.59324190  0.41217434     1.27400
Ni51       Ni  0.92919381  0.55897993  0.30726539     1.26100
H52         H  0.89709709  0.62489740  0.28117275     0.38100
O53         O  0.96080940  0.30104182  0.14271207    -0.81900
O54         O  0.90070745  0.39589439  0.00006000    -0.66600
O55         O  0.92850107  0.34560313  0.06824189    -1.13200
C56         C  0.04809784  0.29349190  0.97191457     1.05000
O57         O  0.94616304  0.41322693  0.94124880    -0.79800
O58         O  0.94478431  0.32706889  0.93455733    -0.67300
Ni59       Ni  0.91308831  0.34024232  0.13069888     1.34900
C60         C  0.92447195  0.29962774  0.95982589     0.83800
O61         O  0.89916424  0.43408451  0.08425643    -0.80300
O62         O  0.86517068  0.37995109  0.12366840    -0.90600
C63         C  0.90759604  0.41267566  0.96122215     0.83300
O64         O  0.94826260  0.38792255  0.15133940    -0.68800
O65         O  0.03602536  0.32199917  0.94351644    -0.88100
C66         C  0.97776499  0.41254669  0.13266806     0.84200
C67         C  0.87018438  0.42040854  0.11415874     1.05700
H68         H  0.01523404  0.38089748  0.01791464     0.37500
O69         O  0.98661585  0.36954434  0.00967009    -1.10700
O70         O  0.93739817  0.28930548  0.99880534    -0.67400
Ni71       Ni  0.97845600  0.31586907  0.04046584     1.26300
O72         O  0.98520744  0.41467601  0.09011439    -0.67600
O73         O  0.02886189  0.28872915  0.01084191    -0.79900
C74         C  0.97867465  0.26948843  0.12013114     0.83500
O75         O  0.97338744  0.26491600  0.07789217    -0.67100
Ni76       Ni  0.99093828  0.36815238  0.94489790     1.27400
Ni77       Ni  0.94275692  0.40285591  0.04542393     1.26100
H78         H  0.90231562  0.33548986  0.05394107     0.38100
C79         C  0.80109532  0.46779409  0.94807915     0.79200
N80         N  0.79447317  0.45956824  0.90383870    -0.79100
C81         C  0.82467850  0.43773488  0.87724893     0.81700
N82         N  0.86233858  0.42355558  0.89545767    -0.79000
C83         C  0.86967340  0.43199908  0.93981045     0.81800
N84         N  0.83863664  0.45367318  0.96612532    -0.80700
C85         C  0.03905634  0.42421711  0.23208969     0.79200
N86         N  0.03104639  0.46652394  0.24548455    -0.79100
C87         C  0.00995794  0.49386848  0.21739767     0.81700
N88         N  0.99602447  0.47782507  0.17711940    -0.79000
C89         C  0.00510475  0.43598771  0.16386014     0.81800
N90         N  0.02619350  0.41015145  0.19151575    -0.80700
O91         O  0.63476310  0.43727309  0.80328494    -0.81900
O92         O  0.76343683  0.32609158  0.86223694    -0.66600
O93         O  0.70271785  0.38332619  0.83224546    -1.13200
C94         C  0.80193397  0.42219889  0.71091431     1.05000
O95         O  0.81906517  0.30230204  0.81689245    -0.79800
O96         O  0.83197601  0.38773177  0.81696470    -0.67300
Ni97       Ni  0.64386176  0.39620969  0.85080691     1.34900
C98         C  0.81050608  0.41964325  0.83397080     0.83800
O99         O  0.67736464  0.29670735  0.86437969    -0.80300
O100        O  0.64766533  0.35551737  0.89937909    -0.90600
C101        C  0.80079707  0.30749040  0.85639720     0.83300
O102        O  0.61704735  0.35228126  0.81500554    -0.68800
O103        O  0.82635594  0.39169035  0.72468372    -0.88100
C104        C  0.63055151  0.32483144  0.78491184     0.84200
C105        C  0.65071222  0.31414195  0.89412071     1.05700
H106        H  0.74742754  0.33959787  0.74456594     0.37500
O107        O  0.75618169  0.35134353  0.77342632    -1.10700
O108        O  0.77465722  0.43326144  0.81851182    -0.67400
Ni109      Ni  0.73140084  0.40820676  0.77915931     1.26300
O110        O  0.67138629  0.31599913  0.77677522    -0.67600
O111        O  0.76295539  0.42956918  0.72699572    -0.79900
C112        C  0.65885581  0.46627158  0.78322098     0.83500
O113        O  0.70089502  0.46391488  0.78173325    -0.67100
Ni114      Ni  0.81963018  0.34657868  0.77050974     1.27400
Ni115      Ni  0.71787264  0.32322470  0.81922391     1.26100
H116        H  0.71895777  0.39244552  0.85807860     0.38100
O117        O  0.54056787  0.08409976  0.77818749    -0.81900
O118        O  0.42034251  0.17105748  0.89118032    -0.66600
O119        O  0.48319753  0.12523426  0.84282628    -1.13200
C120        C  0.36847022  0.06712068  0.75340829     1.05000
O121        O  0.35740058  0.19028691  0.86162241    -0.79800
O122        O  0.34639773  0.10458837  0.85886696    -0.67300
Ni123      Ni  0.54591372  0.12312797  0.83033980     1.34900
C124        C  0.37223679  0.07753436  0.87488763     0.83800
O125        O  0.49910106  0.21174810  0.87227024    -0.80300
O126        O  0.55401405  0.16322708  0.88053617    -0.90600
C127        C  0.38228812  0.18812616  0.89531630     0.83300
O128        O  0.55777318  0.17343499  0.79250804    -0.68800
O129        O  0.34553738  0.10056488  0.76702066    -0.88100
C130        C  0.53073870  0.19961946  0.77650042     0.84200
C131        C  0.53584567  0.20049933  0.88855325     1.05700
H132        H  0.41947367  0.15533769  0.77110361     0.37500
O133        O  0.41546150  0.14578643  0.80202646    -1.10700
O134        O  0.41139574  0.07007674  0.85754517    -0.67400
Ni135      Ni  0.44568981  0.09247312  0.80417040     1.26300
O136        O  0.48930593  0.19315703  0.78151924    -0.67600
O137        O  0.40776055  0.06084962  0.76487301    -0.79900
C138        C  0.51622516  0.04980283  0.77374779     0.83500
O139        O  0.48317500  0.04297715  0.80120832    -0.67100
Ni140      Ni  0.35328623  0.14666794  0.81305245     1.27400
Ni141      Ni  0.45591305  0.18020188  0.83688211     1.26100
H142        H  0.47795912  0.11522681  0.87345297     0.38100
C143        C  0.56267139  0.28167562  0.97842287     0.79200
N144        N  0.54239565  0.24847701  0.95575995    -0.79100
C145        C  0.55995774  0.23346965  0.91534755     0.81700
N146        N  0.59754932  0.25267326  0.89707284    -0.79000
C147        C  0.61761435  0.28647339  0.91899909     0.81800
N148        N  0.59970222  0.30091349  0.95936018    -0.80700
C149        C  0.52075656  0.31320747  0.74366772     0.79200
N150        N  0.56103168  0.32995102  0.75153218    -0.79100
C151        C  0.59486605  0.30333997  0.76098543     0.81700
N152        N  0.58682860  0.25931214  0.76577243    -0.79000
C153        C  0.54604535  0.24208598  0.75737501     0.81800
N154        N  0.51377316  0.26951298  0.74630467    -0.80700
C155        C  0.55387505  0.01885096  0.65653056     0.79200
N156        N  0.52840475  0.98338150  0.64955608    -0.79100
C157        C  0.50138854  0.96601780  0.68204796     0.81700
N158        N  0.49753995  0.98621157  0.72360605    -0.79000
C159        C  0.52226074  0.02341651  0.73134107     0.81800
N160        N  0.55137169  0.03862460  0.69803699    -0.80700
C161        C  0.02135247  0.00819466  0.21711409     0.79200
N162        N  0.03707184  0.97466212  0.24082705    -0.79100
C163        C  0.07851006  0.95980894  0.23236469     0.81700
N164        N  0.10505310  0.97939434  0.19978769    -0.79000
C165        C  0.08993377  0.01372994  0.17608835     0.81800
N166        N  0.04800880  0.02818837  0.18496551    -0.80700
C167        C  0.37750631  0.26997487  0.98832394     0.79200
N168        N  0.38975407  0.24804361  0.94956989    -0.79100
C169        C  0.36932817  0.20991133  0.93858210     0.81700
N170        N  0.33570619  0.19412335  0.96630835    -0.79000
C171        C  0.32326142  0.21601637  0.00547509     0.81800
N172        N  0.34413899  0.25385735  0.01598606    -0.80700
C173        C  0.36038643  0.99499545  0.96434656     0.79200
N174        N  0.37594074  0.01792776  0.92810918    -0.79100
C175        C  0.35478017  0.05403939  0.91545605     0.81700
N176        N  0.31646775  0.06677195  0.93899376    -0.79000
C177        C  0.30026365  0.04330478  0.97551455     0.81800
N178        N  0.32276214  0.00762650  0.98764341    -0.80700
C179        C  0.23773426  0.05260470  0.28300615     0.79200
N180        N  0.24315056  0.00988450  0.29235993    -0.79100
C181        C  0.24968137  0.97934081  0.25929212     0.81700
N182        N  0.24782134  0.99178008  0.21520785    -0.79000
C183        C  0.24355227  0.03522499  0.20525151     0.81800
N184        N  0.23859632  0.06526523  0.23954475    -0.80700
C185        C  0.12581763  0.21795388  0.90751769     0.79200
N186        N  0.09446871  0.24918021  0.91670963    -0.79100
C187        C  0.08569591  0.26339073  0.96015294     0.81700
N188        N  0.10890168  0.24605244  0.99397248    -0.79000
C189        C  0.13998989  0.21478004  0.98453510     0.81800
N190        N  0.14780896  0.20098855  0.94159243    -0.80700
C191        C  0.03018856  0.21612952  0.21581234     0.79200
N192        N  0.06894588  0.20183021  0.19586698    -0.79100
C193        C  0.07736681  0.20546581  0.15033023     0.81700
N194        N  0.04709255  0.22519693  0.12471080    -0.79000
C195        C  0.00833138  0.24040644  0.14458685     0.81800
N196        N  0.00047778  0.23565816  0.18997551    -0.80700
O197        O  0.24888182  0.03270512  0.03878175    -0.81900
O198        O  0.12593584  0.15472006  0.11093196    -0.66600
O199        O  0.18005340  0.08898717  0.07383947    -1.13200
C200        C  0.28478261  0.20047381  0.03370918     1.05000
O201        O  0.15520081  0.21608822  0.13859315    -0.79800
O202        O  0.17727627  0.22409183  0.05076322    -0.67300
Ni203      Ni  0.19275521  0.02742208  0.07459201     1.34900
C204        C  0.16774014  0.19775085  0.01935114     0.83800
O205        O  0.13069287  0.07781681  0.15637407    -0.80300
O206        O  0.13886866  0.01739950  0.11131789    -0.90600
C207        C  0.12133842  0.19203390  0.13066160     0.83300
O208        O  0.22326479  0.02152502  0.12950610    -0.68800
O209        O  0.26621842  0.22498276  0.06486416    -0.88100
C210        C  0.22982557  0.04929090  0.16071772     0.84200
C211        C  0.12098550  0.03812203  0.14543925     1.05700
H212        H  0.24422936  0.15372015  0.11828938     0.37500
O213        O  0.21722766  0.15751039  0.10266815    -1.10700
O214        O  0.18273857  0.15869029  0.01541970    -0.67400
Ni215      Ni  0.22558007  0.12576765  0.04780164     1.26300
O216        O  0.21998513  0.08927914  0.15778318    -0.67600
O217        O  0.27126806  0.16233305  0.02404405    -0.79900
C218        C  0.25938247  0.05539690  0.00362465     0.83500
O219        O  0.23737483  0.08926404  0.99557663    -0.67100
Ni220      Ni  0.21099805  0.21898821  0.10247755     1.27400
Ni221      Ni  0.17337306  0.11949649  0.13080234     1.26100
H222        H  0.15346180  0.09226166  0.05753625     0.38100
O223        O  0.49159968  0.85097672  0.48810919    -0.81900
O224        O  0.38935041  0.92536256  0.62835127    -0.66600
O225        O  0.44005169  0.89264795  0.55729139    -1.13200
C226        C  0.51139925  0.80722470  0.66610011     1.05000
O227        O  0.37306994  0.88752212  0.69003531    -0.79800
O228        O  0.45954310  0.90082054  0.69873494    -0.67300
Ni229      Ni  0.44168670  0.88988593  0.49246219     1.34900
C230        C  0.48132759  0.92356353  0.66991438     0.83800
O231        O  0.34828173  0.90492110  0.55238547    -0.80300
O232        O  0.39107366  0.92768112  0.49220765    -0.90600
C233        C  0.37247708  0.92351013  0.66859703     0.83300
O234        O  0.40108773  0.84282609  0.48134461    -0.68800
O235        O  0.47596717  0.81265816  0.69131271    -0.88100
C236        C  0.37708954  0.81992111  0.50842191     0.84200
C237        C  0.35392767  0.92463261  0.51479581     1.05700
H238        H  0.42337537  0.81187263  0.61813975     0.37500
O239        O  0.42783501  0.84277450  0.62377712    -1.10700
O240        O  0.48865245  0.91098024  0.62906778    -0.67400
Ni241      Ni  0.48110129  0.86019368  0.59143031     1.26300
O242        O  0.38010441  0.82242277  0.55125341    -0.67600
O243        O  0.51878007  0.82589486  0.62786128    -0.79900
C244        C  0.49891863  0.81692162  0.51087479     0.83500
O245        O  0.47950022  0.81119624  0.54974512    -0.67100
Ni246      Ni  0.42426059  0.84934670  0.68871831     1.27400
Ni247      Ni  0.38711195  0.87401119  0.58911450     1.26100
H248        H  0.44457344  0.92338720  0.56406282     0.38100
O249        O  0.27058630  0.90453422  0.27243219    -0.81900
O250        O  0.14635974  0.80023050  0.37172285    -0.66600
O251        O  0.21145131  0.84253336  0.31919310    -1.13200
C252        C  0.09520109  0.92604887  0.26210632     1.05000
O253        O  0.08464287  0.83493146  0.39370500    -0.79800
O254        O  0.07156452  0.83080013  0.30528943    -0.67300
Ni255      Ni  0.27447874  0.85544389  0.31456982     1.34900
C256        C  0.09883399  0.80885782  0.28070484     0.83800
O257        O  0.22436763  0.82182475  0.40831290    -0.80300
O258        O  0.28285346  0.80995962  0.35866408    -0.90600
C259        C  0.10751455  0.80021825  0.39061034     0.83300
O260        O  0.28278003  0.89393876  0.36526850    -0.68800
O261        O  0.07424937  0.92004626  0.30035174    -0.88100
C262        C  0.25344989  0.90971951  0.39238297     0.84200
C263        C  0.26297451  0.80651463  0.39803867     1.05700
H264        H  0.14624731  0.91542000  0.34750769     0.37500
O265        O  0.14237459  0.88478797  0.34034656    -1.10700
O266        O  0.13943715  0.81937049  0.27437082    -0.67400
Ni267      Ni  0.17112956  0.87313797  0.28323391     1.26300
O268        O  0.21303911  0.90671709  0.38453330    -0.67600
O269        O  0.12998629  0.90518194  0.24911650    -0.79900
C270        C  0.24080084  0.93384387  0.27319858     0.83500
O271        O  0.20239892  0.92648014  0.28991574    -0.67100
Ni272      Ni  0.08049025  0.87764137  0.34728766     1.27400
Ni273      Ni  0.18152287  0.85319415  0.37600925     1.26100
H274        H  0.20885098  0.81162145  0.31218058     0.38100
C275        C  0.06140933  0.73864068  0.48666662     0.79200
N276        N  0.03884820  0.70573534  0.46622981    -0.79100
C277        C  0.04095689  0.70127253  0.42035073     0.81700
N278        N  0.06563488  0.73052652  0.39483810    -0.79000
C279        C  0.08975066  0.76233931  0.41543661     0.81800
N280        N  0.08657263  0.76653671  0.46096039    -0.80700
C281        C  0.23964991  0.96097388  0.50468200     0.79200
N282        N  0.23247852  0.94662744  0.46233000    -0.79100
C283        C  0.26505558  0.92881962  0.43573394     0.81700
N284        N  0.30592111  0.92473193  0.45182001    -0.79000
C285        C  0.31388113  0.93919165  0.49440730     0.81800
N286        N  0.28047798  0.95686123  0.52106763    -0.80700
C287        C  0.27141487  0.76098387  0.51013665     0.79200
N288        N  0.25821158  0.76772099  0.46791724    -0.79100
C289        C  0.28508005  0.78731678  0.43623262     0.81700
N290        N  0.32596115  0.80176167  0.44797471    -0.79000
C291        C  0.34004525  0.79423057  0.49052486     0.81800
N292        N  0.31232464  0.77396747  0.52121702    -0.80700
C293        C  0.08113961  0.75167077  0.17597041     0.79200
N294        N  0.09968762  0.77412181  0.20946371    -0.79100
C295        C  0.08242174  0.77403699  0.25199220     0.81700
N296        N  0.04596010  0.74901812  0.26270806    -0.79000
C297        C  0.02862094  0.72268230  0.23018550     0.81800
N298        N  0.04550427  0.72508428  0.18635288    -0.80700
C299        C  0.28058924  0.99500465  0.71067201     0.79200
N300        N  0.30240512  0.03021200  0.72736698    -0.79100
C301        C  0.34711639  0.03179365  0.72640384     0.81700
N302        N  0.37046051  0.99729021  0.70723371    -0.79000
C303        C  0.34861440  0.96192702  0.68923455     0.81800
N304        N  0.30369349  0.96072147  0.69223394    -0.80700
C305        C  0.80927939  0.25927715  0.96882713     0.79200
N306        N  0.79398837  0.27242235  0.92914268    -0.79100
C307        C  0.82127138  0.29039899  0.89680795     0.81700
N308        N  0.86493772  0.29671558  0.90508594    -0.79000
C309        C  0.88089037  0.28361499  0.94533989     0.81800
N310        N  0.85272876  0.26478586  0.97679880    -0.80700
C311        C  0.57564375  0.74260114  0.74441045     0.79200
N312        N  0.60106691  0.71739612  0.71557769    -0.79100
C313        C  0.59979699  0.72287734  0.67029410     0.81700
N314        N  0.57125695  0.75247823  0.65389084    -0.79000
C315        C  0.54527239  0.77750159  0.68272534     0.81800
N316        N  0.54761965  0.77205065  0.72784504    -0.80700
C317        C  0.59188971  0.77274863  0.43760031     0.79200
N318        N  0.60557550  0.74024029  0.46337529    -0.79100
C319        C  0.58461050  0.73004095  0.50278505     0.81700
N320        N  0.54897289  0.75373550  0.51843158    -0.79000
C321        C  0.53420826  0.78701014  0.49286419     0.81800
N322        N  0.55576447  0.79616916  0.45212953    -0.80700
C323        C  0.79748861  0.74334712  0.40262651     0.79200
N324        N  0.77325802  0.72603419  0.43821934    -0.79100
C325        C  0.78587397  0.68971033  0.45906668     0.81700
N326        N  0.82452384  0.67031920  0.44363104    -0.79000
C327        C  0.84853141  0.68585139  0.40616617     0.81800
N328        N  0.83501550  0.72298944  0.38636273    -0.80700
C329        C  0.56386489  0.53396162  0.75568518     0.79200
N330        N  0.57910497  0.55534145  0.71795005    -0.79100
C331        C  0.62183454  0.55116312  0.70169681     0.81700
N332        N  0.64972558  0.52414187  0.72355315    -0.79000
C333        C  0.63441459  0.50223246  0.76163387     0.81800
N334        N  0.59166961  0.50750610  0.77666455    -0.80700
C335        C  0.87991623  0.48695367  0.63627389     0.79200
N336        N  0.85270976  0.51909950  0.62469950    -0.79100
C337        C  0.80963406  0.51873120  0.63816956     0.81700
N338        N  0.79279891  0.48557472  0.66374377    -0.79000
C339        C  0.81961668  0.45310555  0.67666291     0.81800
N340        N  0.86346747  0.45409625  0.66337561    -0.80700
C341        C  0.75266177  0.52863144  0.39759547     0.79200
N342        N  0.79387346  0.53407494  0.37820724    -0.79100
C343        C  0.82583861  0.55408214  0.40173637     0.81700
N344        N  0.81696203  0.56804872  0.44498497    -0.79000
C345        C  0.77567448  0.56325563  0.46435185     0.81800
N346        N  0.74383962  0.54354217  0.44056979    -0.80700
C347        C  0.78619953  0.46946917  0.19502089     0.79200
N348        N  0.81122757  0.50100758  0.21471884    -0.79100
C349        C  0.85343883  0.50884255  0.19936973     0.81700
N350        N  0.87102422  0.48474185  0.16403034    -0.79000
C351        C  0.84680973  0.45251445  0.14431331     0.81800
N352        N  0.80459869  0.44450590  0.16052360    -0.80700
O353        O  0.14221607  0.30434411  0.67744448    -0.81900
O354        O  0.02819158  0.40259605  0.78175394    -0.66600
O355        O  0.08757894  0.35473474  0.73497110    -1.13200
C356        C  0.96525287  0.30844956  0.64712335     1.05000
O357        O  0.96572447  0.42665831  0.75893065    -0.79800
O358        O  0.94321914  0.33741296  0.74555663    -0.67300
Ni359      Ni  0.14996767  0.34763701  0.72492331     1.34900
C360        C  0.96798704  0.30669511  0.75602316     0.83800
O361        O  0.10687807  0.44163634  0.76296573    -0.80300
O362        O  0.16173005  0.39335824  0.76982207    -0.90600
C363        C  0.99612985  0.42840674  0.78723127     0.83300
O364        O  0.16416657  0.38824876  0.67844333    -0.68800
O365        O  0.94816634  0.34577274  0.65784754    -0.88100
C366        C  0.14081560  0.41544153  0.65918475     0.84200
C367        C  0.14355734  0.43062484  0.77841152     1.05700
H368        H  0.02647114  0.38825586  0.66214373     0.37500
O369        O  0.02201633  0.37967747  0.69325021    -1.10700
O370        O  0.00976597  0.31142141  0.75362851    -0.67400
Ni371      Ni  0.04564163  0.32293381  0.69932508     1.26300
O372        O  0.10075424  0.42380443  0.67249677    -0.67600
O373        O  0.00161002  0.29485483  0.66237400    -0.79900
C374        C  0.12000676  0.31068856  0.64256495     0.83500
O375        O  0.08318576  0.33034469  0.64576928    -0.67100
Ni376      Ni  0.95899800  0.38596009  0.70772025     1.27400
Ni377      Ni  0.06449996  0.41147468  0.72765709     1.26100
H378        H  0.08203114  0.34624447  0.76613409     0.38100
O379        O  0.58047723  0.08080828  0.53607510    -0.81900
O380        O  0.51843558  0.22214018  0.41365653    -0.66600
O381        O  0.51888393  0.11789650  0.48007462    -1.13200
C382        C  0.60689948  0.06524736  0.35135758     1.05000
O383        O  0.50699994  0.18416721  0.35032390    -0.79800
O384        O  0.51531461  0.09566955  0.33706460    -0.67300
Ni385      Ni  0.52606913  0.11634867  0.54319429     1.34900
C386        C  0.49610960  0.07046751  0.36568872     0.83800
O387        O  0.47655141  0.19765489  0.49076078    -0.80300
O388        O  0.47377715  0.15506190  0.55274276    -0.90600
C389        C  0.50215854  0.21849502  0.37500955     0.83300
O390        O  0.56412286  0.16437398  0.55125603    -0.68800
O391        O  0.60317569  0.10343323  0.33511131    -0.88100
C392        C  0.58111458  0.19156568  0.52384192     0.84200
C393        C  0.45941330  0.18725457  0.52955183     1.05700
H394        H  0.59044838  0.15410153  0.41359089     0.37500
O395        O  0.56145360  0.14189518  0.40892195    -1.10700
O396        O  0.50388794  0.07029167  0.40712617    -0.67400
Ni397      Ni  0.55541798  0.08610114  0.43661812     1.26300
O398        O  0.56814305  0.19648554  0.48352808    -0.67600
O399        O  0.59022604  0.05417512  0.39024827    -0.79900
C400        C  0.61232904  0.08390946  0.50556657     0.83500
O401        O  0.60646334  0.10008845  0.46745862    -0.67100
Ni402      Ni  0.55555117  0.14384441  0.34509889     1.27400
Ni403      Ni  0.51987874  0.17116264  0.44967597     1.26100
H404        H  0.48922198  0.10657128  0.47764400     0.38100
C405        C  0.37403002  0.24320659  0.60665637     0.79200
N406        N  0.40763351  0.21617676  0.59169570    -0.79100
C407        C  0.42114060  0.21510828  0.54689155     0.81700
N408        N  0.40024484  0.24151526  0.51751068    -0.79000
C409        C  0.36765794  0.26959425  0.53283003     0.81800
N410        N  0.35517481  0.26976781  0.57705938    -0.80700
O411        O  0.33256067  0.28079053  0.38065472    -0.81900
O412        O  0.27632699  0.40494775  0.53878331    -0.66600
O413        O  0.27789969  0.33921039  0.42974762    -1.13200
C414        C  0.37393515  0.45531973  0.37501647     1.05000
O415        O  0.26654764  0.46544830  0.49976748    -0.79800
O416        O  0.28350247  0.48138615  0.40689399    -0.67300
Ni417      Ni  0.28305992  0.27771537  0.42541608     1.34900
C418        C  0.26548540  0.45452635  0.38036716     0.83800
O419        O  0.23406921  0.33325623  0.51371438    -0.80300
O420        O  0.23385139  0.27133545  0.47108666    -0.90600
C421        C  0.25697462  0.44128652  0.53420916     0.83300
O422        O  0.32517082  0.26922035  0.46959813    -0.68800
O423        O  0.36930025  0.47289996  0.41470323    -0.88100
C424        C  0.33862777  0.29234975  0.50194742     0.84200
C425        C  0.21853511  0.29549300  0.50430974     1.05700
H426        H  0.35245802  0.39708410  0.46442663     0.37500
O427        O  0.32361934  0.40441091  0.45424324    -1.10700
O428        O  0.26474678  0.41392915  0.38838190    -0.67400
Ni429      Ni  0.31559411  0.37889702  0.39611797     1.26300
O430        O  0.32456550  0.33136608  0.51111579    -0.67600
O431        O  0.35335533  0.42043229  0.36336249    -0.79900
C432        C  0.36694269  0.30546644  0.38249005     0.83500
O433        O  0.36554282  0.34271784  0.40186135    -0.67100
Ni434      Ni  0.31862122  0.46737115  0.45766751     1.27400
Ni435      Ni  0.27944079  0.36877206  0.48565017     1.26100
H436        H  0.24850964  0.34365806  0.41982160     0.38100
C437        C  0.46605591  0.47531831  0.29021196     0.79200
N438        N  0.44733987  0.50436841  0.26270600    -0.79100
C439        C  0.40655582  0.52058698  0.27340688     0.81700
N440        N  0.38388165  0.50648266  0.31167517    -0.79000
C441        C  0.40202674  0.47678620  0.33920014     0.81800
N442        N  0.44317538  0.46137553  0.32826709    -0.80700
C443        C  0.45784906  0.73574744  0.05282748     0.79200
N444        N  0.42477742  0.70821495  0.06689606    -0.79100
C445        C  0.39874997  0.71723149  0.10462699     0.81700
N446        N  0.40661766  0.75511870  0.12892183    -0.79000
C447        C  0.43994674  0.78329547  0.11380508     0.81800
N448        N  0.46512736  0.77280230  0.07653521    -0.80700
O449        O  0.38391127  0.64181377  0.11184025    -0.81900
O450        O  0.28018687  0.56583582  0.23634985    -0.66600
O451        O  0.33077882  0.59966159  0.17406805    -1.13200
C452        C  0.21014983  0.68921056  0.13796934     1.05000
O453        O  0.21553224  0.59112637  0.26229127    -0.79800
O454        O  0.18761250  0.60303974  0.17348815    -0.67300
Ni455      Ni  0.39021852  0.59631961  0.15569834     1.34900
C456        C  0.20984722  0.58452033  0.14154456     0.83800
O457        O  0.36058139  0.58145198  0.26126819    -0.80300
O458        O  0.39821660  0.55190886  0.20081680    -0.90600
C459        C  0.24425544  0.56088275  0.25865361     0.83300
O460        O  0.41253811  0.63854700  0.19619135    -0.68800
O461        O  0.19654498  0.68657579  0.17970920    -0.88100
C462        C  0.39569953  0.66843486  0.22147145     0.84200
C463        C  0.38718612  0.55304450  0.24335764     1.05700
H464        H  0.27711653  0.67978455  0.21139363     0.37500
O465        O  0.27128605  0.64897692  0.20569958    -1.10700
O466        O  0.25174373  0.58587101  0.13947991    -0.67400
Ni467      Ni  0.29032436  0.63594714  0.14488232     1.26300
O468        O  0.35481227  0.66836893  0.23435474    -0.67600
O469        O  0.24567835  0.67161505  0.12087097    -0.79900
C470        C  0.36990660  0.68031236  0.12162202     0.83500
O471        O  0.33261464  0.68524890  0.14365377    -0.67100
Ni472      Ni  0.20849191  0.64040271  0.22121021     1.27400
Ni473      Ni  0.31597854  0.61657139  0.23463926     1.26100
H474        H  0.32112040  0.56985132  0.16897175     0.38100
C475        C  0.17131470  0.51120065  0.59153636     0.79200
N476        N  0.20599122  0.49725203  0.56451732    -0.79100
C477        C  0.22005861  0.45527442  0.56650111     0.81700
N478        N  0.19856112  0.42717272  0.59639860    -0.79000
C479        C  0.16258027  0.44142098  0.62260726     0.81800
N480        N  0.14998071  0.48331511  0.62004244    -0.80700
O481        O  0.43348030  0.85686665  0.14199845    -0.81900
O482        O  0.56821323  0.93783304  0.23609083    -0.66600
O483        O  0.49823869  0.90363094  0.19039013    -1.13200
C484        C  0.60521238  0.80867206  0.11543619     1.05000
O485        O  0.62806644  0.89820278  0.24611356    -0.79800
O486        O  0.64076360  0.89203832  0.15392228    -0.67300
Ni487      Ni  0.43381268  0.89502150  0.19460220     1.34900
C488        C  0.61874524  0.91805482  0.13145607     0.83800
O489        O  0.49224742  0.92505518  0.28358218    -0.80300
O490        O  0.42860752  0.93245733  0.24817999    -0.90600
C491        C  0.60710991  0.93426474  0.25005063     0.83300
O492        O  0.42634557  0.84198580  0.22911860    -0.68800
O493        O  0.62335376  0.80798369  0.15347215    -0.88100
C494        C  0.45609142  0.82114434  0.24766928     0.84200
C495        C  0.45405351  0.94152718  0.28029625     1.05700
H496        H  0.55352005  0.82341508  0.20622607     0.37500
O497        O  0.56183494  0.85356189  0.20060552    -1.10700
O498        O  0.57628306  0.91950882  0.13553487    -0.67400
Ni499      Ni  0.53521414  0.86992281  0.14689495     1.26300
O500        O  0.49267792  0.83864967  0.25712097    -0.67600
O501        O  0.57319707  0.83392075  0.10700597    -0.79900
C502        C  0.45558354  0.82169032  0.13931294     0.83500
O503        O  0.49475579  0.82077296  0.15299387    -0.67100
Ni504      Ni  0.62412875  0.85208019  0.20060965     1.27400
Ni505      Ni  0.52823328  0.88903405  0.24367245     1.26100
H506        H  0.50336993  0.93427950  0.18425114     0.38100
C507        C  0.63759343  0.71072655  0.04710761     0.79200
N508        N  0.61774241  0.73634889  0.07998519    -0.79100
C509        C  0.62423563  0.78055827  0.07903625     0.81700
N510        N  0.65290036  0.79833120  0.04716577    -0.79000
C511        C  0.67376287  0.77234669  0.01522008     0.81800
N512        N  0.66554838  0.72889936  0.01526705    -0.80700
O513        O  0.81260823  0.22386228  0.74228894    -0.81900
O514        O  0.77417257  0.11119174  0.57699637    -0.66600
O515        O  0.75966361  0.16587223  0.69174524    -1.13200
C516        C  0.85670671  0.05187624  0.73170581     1.05000
O517        O  0.76331644  0.04590722  0.60727644    -0.79800
O518        O  0.77174988  0.02487076  0.69536106    -0.67300
Ni519      Ni  0.76699864  0.22831163  0.69788061     1.34900
C520        C  0.74698621  0.04215597  0.72636549     0.83800
O521        O  0.72681273  0.17834772  0.60630288    -0.80300
O522        O  0.72285627  0.23769696  0.65227981    -0.90600
C523        C  0.75631076  0.07356426  0.57671751     0.83300
O524        O  0.81462672  0.23883167  0.65451336    -0.68800
O525        O  0.85806950  0.04094571  0.68967448    -0.88100
C526        C  0.83422800  0.21577170  0.62400338     0.84200
C527        C  0.71078788  0.21546646  0.61755391     1.05700
H528        H  0.83845700  0.11554006  0.65297948     0.37500
O529        O  0.80895503  0.10541600  0.66164410    -1.10700
O530        O  0.74535893  0.08362396  0.73315369    -0.67400
Ni531      Ni  0.79504953  0.12420034  0.72240344     1.26300
O532        O  0.81919783  0.17842149  0.61164115    -0.67600
O533        O  0.83178999  0.08172025  0.74934704    -0.79900
C534        C  0.84648937  0.19936987  0.73681850     0.83500
O535        O  0.84419857  0.16270199  0.71664152    -0.67100
Ni536      Ni  0.81131958  0.04511778  0.64823421     1.27400
Ni537      Ni  0.76870866  0.14158753  0.63284276     1.26100
H538        H  0.72899432  0.15980536  0.70123860     0.38100
C539        C  0.69939365  0.93590882  0.74271979     0.79200
N540        N  0.70259709  0.97799132  0.72923564    -0.79100
C541        C  0.72170731  0.00963068  0.75414975     0.81700
N542        N  0.73615850  0.99860744  0.79552397    -0.79000
C543        C  0.73039400  0.95668917  0.81123038     0.81800
N544        N  0.71401406  0.92506890  0.78346470    -0.80700
O545        O  0.82855124  0.77323094  0.86920210    -0.81900
O546        O  0.75774387  0.90343218  0.01500706    -0.66600
O547        O  0.76972596  0.83218164  0.90888467    -1.13200
C548        C  0.86276217  0.95150268  0.85655485     1.05000
O549        O  0.74557861  0.96049628  0.97239433    -0.79800
O550        O  0.76682742  0.97046161  0.87980228    -0.67300
Ni551      Ni  0.77794810  0.77075109  0.91161280     1.34900
C552        C  0.75233499  0.94239144  0.85199122     0.83800
O553        O  0.72182510  0.82893700  0.99190385    -0.80300
O554        O  0.72756557  0.76457790  0.95440755    -0.90600
C555        C  0.73752082  0.93888006  0.00881405     0.83300
O556        O  0.81823682  0.76904263  0.95924389    -0.68800
O557        O  0.85265577  0.97007270  0.89471472    -0.88100
C558        C  0.83183656  0.79841968  0.98599500     0.84200
C559        C  0.70945814  0.78975686  0.98483994     1.05700
H560        H  0.83753139  0.89716240  0.94513970     0.37500
O561        O  0.80910255  0.90137717  0.93230307    -1.10700
O562        O  0.75843752  0.90163995  0.85611872    -0.67400
Ni563      Ni  0.80926099  0.87118724  0.87510934     1.26300
O564        O  0.81341022  0.83579057  0.99137814    -0.67600
O565        O  0.84779956  0.91381702  0.84436785    -0.79900
C566        C  0.86299538  0.79721638  0.87311202     0.83500
O567        O  0.86031329  0.83685137  0.88767792    -0.67100
Ni568      Ni  0.79979731  0.96319233  0.93332711     1.27400
Ni569      Ni  0.76558371  0.86547495  0.96321157     1.26100
H570        H  0.74106354  0.83446872  0.89595698     0.38100
O571        O  0.14099845  0.69995056  0.96266346    -0.81900
O572        O  0.02348498  0.53875413  0.94290827    -0.66600
O573        O  0.08868566  0.64266301  0.92179150    -1.13200
C574        C  0.96339335  0.70648073  0.00532354     1.05000
O575        O  0.96470932  0.57132616  0.91973515    -0.79800
O576        O  0.94821401  0.66009793  0.91846040    -0.67300
Ni577      Ni  0.14995652  0.64859693  0.92611308     1.34900
C578        C  0.97461632  0.68653477  0.89809582     0.83800
O579        O  0.10041185  0.55465016  0.89474127    -0.80300
O580        O  0.16144198  0.59752718  0.88849666    -0.90600
C581        C  0.99280059  0.54042249  0.91549991     0.83300
O582        O  0.15555635  0.61434203  0.97933832    -0.68800
O583        O  0.94531122  0.66809225  0.00581412    -0.88100
C584        C  0.13114863  0.58583409  0.99956020     0.84200
C585        C  0.14007516  0.56236433  0.87937763     1.05700
H586        H  0.02553711  0.61905227  0.00325417     0.37500
O587        O  0.02075130  0.62498682  0.97192732    -1.10700
O588        O  0.01589112  0.68698460  0.90337305    -0.67400
Ni589      Ni  0.04821204  0.67990581  0.95696346     1.26300
O590        O  0.09319764  0.57392100  0.98627070    -0.67600
O591        O  0.00354510  0.71389502  0.99052296    -0.79900
C592        C  0.12392104  0.69779355  0.00263139     0.83500
O593        O  0.08555248  0.67990113  0.00930629    -0.67100
Ni594      Ni  0.95751947  0.61868668  0.96485844     1.27400
Ni595      Ni  0.05993431  0.58900159  0.93400009     1.26100
H596        H  0.08435823  0.64810883  0.89020641     0.38100
C597        C  0.96834013  0.76947806  0.80939444     0.79200
N598        N  0.98142987  0.73500797  0.83358739    -0.79100
C599        C  0.95686533  0.72043592  0.86974952     0.81700
N600        N  0.91894664  0.74145410  0.88296904    -0.79000
C601        C  0.90611353  0.77731884  0.86037927     0.81800
N602        N  0.93049941  0.79083953  0.82298265    -0.80700
C603        C  0.03612142  0.54102328  0.79782587     0.79200
N604        N  0.02312458  0.55327381  0.84032978    -0.79100
C605        C  0.00248179  0.52406113  0.86891974     0.81700
N606        N  0.99291823  0.48222197  0.85382460    -0.79000
C607        C  0.00465105  0.47095897  0.80971565     0.81800
N608        N  0.02619010  0.50035610  0.78301597    -0.80700
C609        C  0.23278272  0.50327676  0.81939036     0.79200
N610        N  0.20881028  0.53321489  0.84425394    -0.79100
C611        C  0.16416228  0.52910164  0.85063093     0.81700
N612        N  0.14302903  0.49482230  0.83053060    -0.79000
C613        C  0.16665446  0.46432768  0.80539219     0.81800
N614        N  0.21143577  0.46871862  0.80021102    -0.80700
C615        C  0.71588608  0.02819564  0.47075409     0.79200
N616        N  0.67326180  0.04143605  0.47325193    -0.79100
C617        C  0.65644551  0.06473668  0.50954931     0.81700
N618        N  0.68330759  0.07574218  0.54360291    -0.79000
C619        C  0.72623429  0.06210738  0.54129524     0.81800
N620        N  0.74208326  0.03850595  0.50513323    -0.80700
C621        C  0.93659262  0.23699374  0.54928953     0.79200
N622        N  0.89623118  0.22041797  0.56437820    -0.79100
C623        C  0.87769303  0.23336433  0.60541039     0.81700
N624        N  0.90004634  0.26278976  0.63117645    -0.79000
C625        C  0.94061153  0.27854543  0.61721197     0.81800
N626        N  0.95866451  0.26543379  0.57638809    -0.80700
C627        C  0.96332709  0.18701257  0.75851184     0.79200
N628        N  0.97739877  0.22891652  0.76345823    -0.79100
C629        C  0.94873738  0.26257230  0.76317429     0.81700
N630        N  0.90499894  0.25389970  0.75644771    -0.79000
C631        C  0.89063334  0.21146420  0.75215740     0.81800
N632        N  0.92024717  0.17846914  0.75286781    -0.80700
C633        C  0.50469905  0.71371243  0.24050177     0.79200
N634        N  0.49680993  0.75610317  0.24908713    -0.79100
C635        C  0.45569029  0.77277689  0.24992768     0.81700
N636        N  0.42054343  0.74534837  0.24165481    -0.79000
C637        C  0.42838278  0.70118705  0.23590100     0.81800
N638        N  0.47057676  0.68619509  0.23490972    -0.80700
C639        C  0.69624698  0.00980836  0.28399550     0.79200
N640        N  0.67435119  0.03757676  0.31322181    -0.79100
C641        C  0.63037558  0.03239720  0.32262967     0.81700
N642        N  0.60764166  0.99970440  0.30138764    -0.79000
C643        C  0.62950944  0.97174961  0.27182550     0.81800
N644        N  0.67372489  0.97687854  0.26378279    -0.80700
C645        C  0.21091657  0.76604543  0.05058534     0.79200
N646        N  0.21307608  0.75025778  0.09244966    -0.79100
C647        C  0.18759124  0.71650203  0.10682741     0.81700
N648        N  0.15686002  0.69896973  0.07888782    -0.79000
C649        C  0.15094610  0.71797961  0.03798723     0.81800
N650        N  0.17954350  0.75025302  0.02361518    -0.80700
C651        C  0.65547757  0.28577646  0.53596720     0.79200
N652        N  0.68333228  0.27273907  0.56792017    -0.79100
C653        C  0.67724159  0.23272345  0.58741816     0.81700
N654        N  0.64415694  0.20565876  0.57302546    -0.79000
C655        C  0.61688006  0.21913479  0.54062321     0.81800
N656        N  0.62295448  0.25879827  0.52275755    -0.80700
C657        C  0.24638552  0.44185479  0.26032137     0.79200
N658        N  0.25213864  0.43475300  0.30436712    -0.79100
C659        C  0.25165667  0.46734571  0.33545234     0.81700
N660        N  0.24598022  0.50940697  0.32187968    -0.79000
C661        C  0.23750892  0.51707966  0.27752886     0.81800
N662        N  0.23829373  0.48312287  0.24698888    -0.80700
C663        C  0.19880203  0.50388228  0.05127006     0.79200
N664        N  0.20677051  0.52236701  0.09172121    -0.79100
C665        C  0.18814133  0.56053275  0.10505205     0.81700
N666        N  0.16128848  0.58125882  0.07628961    -0.79000
C667        C  0.15142678  0.56163756  0.03591437     0.81800
N668        N  0.17171160  0.52378377  0.02320501    -0.80700
C669        C  0.39429695  0.00714912  0.37107757     0.79200
N670        N  0.42503899  0.03842068  0.37748211    -0.79100
C671        C  0.46280083  0.03991178  0.35206151     0.81700
N672        N  0.47180433  0.00816203  0.32083282    -0.79000
C673        C  0.44149719  0.97596611  0.31354995     0.81800
N674        N  0.40190243  0.97575240  0.33812173    -0.80700
C675        C  0.46087797  0.30005575  0.29794573     0.79200
N676        N  0.48726750  0.27104975  0.31745104    -0.79100
C677        C  0.47533473  0.25342172  0.35803032     0.81700
N678        N  0.43581540  0.26386067  0.37904583    -0.79000
C679        C  0.40875627  0.29241459  0.35943295     0.81800
N680        N  0.42137387  0.31050948  0.31895085    -0.80700
C681        C  0.12740613  0.22564217  0.55420675     0.79200
N682        N  0.11385103  0.25002319  0.59065876    -0.79100
C683        C  0.13327950  0.28884280  0.59970132     0.81700
N684        N  0.16734188  0.30370298  0.57185356    -0.79000
C685        C  0.18092024  0.27979747  0.53424865     0.81800
N686        N  0.16106550  0.24054573  0.52598232    -0.80700
C687        C  0.94185307  0.82326763  0.02626498     0.79200
N688        N  0.89921687  0.82727409  0.01597731    -0.79100
C689        C  0.87437625  0.79106691  0.00710272     0.81700
N690        N  0.89371989  0.75040878  0.00650455    -0.79000
C691        C  0.93677884  0.74619044  0.01797271     0.81800
N692        N  0.95993430  0.78300858  0.02730315    -0.80700
C693        C  0.66306962  0.01645164  0.07204637     0.79200
N694        N  0.69464579  0.99904532  0.04324781    -0.79100
C695        C  0.70297242  0.95565394  0.04261519     0.81700
N696        N  0.67817571  0.92917252  0.07138535    -0.79000
C697        C  0.64489093  0.94645381  0.09950201     0.81800
N698        N  0.63813452  0.99028266  0.10015970    -0.80700
C699        C  0.95179078  0.99843287  0.77949380     0.79200
N700        N  0.92712804  0.02361806  0.75330156    -0.79100
C701        C  0.88317228  0.02699745  0.76181918     0.81700
N702        N  0.86315569  0.00417574  0.79622405    -0.79000
C703        C  0.88700273  0.97793324  0.82216997     0.81800
N704        N  0.93154043  0.97503429  0.81393836    -0.80700
C705        C  0.66929240  0.42246962  0.20994074    -0.11800
C706        C  0.65040464  0.45052995  0.24347954     0.05300
C707        C  0.67690222  0.48362788  0.26193526    -0.10600
C708        C  0.72090975  0.48931246  0.24650300    -0.12200
C709        C  0.73976257  0.46189674  0.21228242    -0.02000
C710        C  0.71356010  0.42800467  0.19458714    -0.11100
C711        C  0.60240893  0.44831860  0.25660233     0.05300
H712        H  0.66313171  0.50622765  0.28727458     0.07300
H713        H  0.73989824  0.51579643  0.26101430     0.10700
H714        H  0.72703027  0.40610669  0.16844588     0.11000
H715        H  0.64964219  0.39656071  0.19526677     0.07300
C716        C  0.57118087  0.44563362  0.22312094    -0.11800
C717        C  0.52634214  0.45237020  0.23439059    -0.11100
C718        C  0.51178528  0.46084110  0.27945126    -0.02000
C719        C  0.54239966  0.45987958  0.31343336    -0.12200
C720        C  0.58738966  0.45409139  0.30204989    -0.10600
H721        H  0.58172246  0.44120452  0.18784252     0.07300
H722        H  0.50319443  0.45248107  0.20768792     0.11000
H723        H  0.53194443  0.46632453  0.34842635     0.10700
H724        H  0.61068927  0.45577097  0.32853973     0.07300
C725        C  0.71958142  0.41743828  0.37224421    -0.11800
C726        C  0.68181929  0.41712070  0.40189697     0.05300
C727        C  0.65838716  0.45620890  0.40922695    -0.10600
C728        C  0.67828474  0.49588161  0.39702660    -0.12200
C729        C  0.72196340  0.49630776  0.37896152    -0.02000
C730        C  0.73976063  0.45730919  0.36059572    -0.11100
C731        C  0.67483845  0.38155206  0.43495926     0.05300
H732        H  0.62834685  0.45723747  0.43061978     0.07300
H733        H  0.66314720  0.52587986  0.40971143     0.10700
H734        H  0.77274992  0.45686724  0.34464127     0.11000
H735        H  0.73698933  0.38739989  0.36391707     0.07300
C736        C  0.63234276  0.37213580  0.45353760    -0.11800
C737        C  0.62674995  0.34445058  0.49028329    -0.11100
C738        C  0.66337507  0.32460215  0.50846823    -0.02000
C739        C  0.70587534  0.33402141  0.49042757    -0.12200
C740        C  0.71160120  0.36235593  0.45400094    -0.10600
H741        H  0.60340205  0.38623189  0.43975021     0.07300
H742        H  0.59345618  0.33672798  0.50318025     0.11000
H743        H  0.73434733  0.31792125  0.50299875     0.10700
H744        H  0.74498285  0.36986615  0.44141631     0.07300
C745        C  0.98302585  0.55179080  0.61318021    -0.11800
C746        C  0.00956083  0.53280715  0.64467060     0.05300
C747        C  0.99922142  0.49012250  0.65968546    -0.10600
C748        C  0.95828503  0.47112451  0.65122959    -0.12200
C749        C  0.92789585  0.49432020  0.62728043    -0.02000
C750        C  0.94258595  0.53219889  0.60387517    -0.11100
C751        C  0.03583643  0.56107541  0.67421271     0.05300
H752        H  0.01935960  0.47450380  0.68383819     0.07300
H753        H  0.94823322  0.44143389  0.66828480     0.10700
H754        H  0.92052856  0.55004177  0.58335792     0.11000
H755        H  0.99065890  0.58434154  0.60068231     0.07300
C756        C  0.01287373  0.59288995  0.70075717    -0.11800
C757        C  0.02266241  0.59882964  0.74614308    -0.11100
C758        C  0.05431467  0.57192786  0.76412896    -0.02000
C759        C  0.08655354  0.55370540  0.73398565    -0.12200
C760        C  0.07547342  0.54528109  0.68950542    -0.10600
H761        H  0.98244864  0.60640470  0.68961963     0.07300
H762        H  0.99879867  0.61558006  0.76854450     0.11000
H763        H  0.11306091  0.53493233  0.74705590     0.10700
H764        H  0.09340050  0.52058892  0.67015212     0.07300
C765        C  0.44161186  0.56332987  0.76696685    -0.11800
C766        C  0.42344518  0.52709422  0.79071993     0.05300
C767        C  0.45235304  0.49549003  0.80581799    -0.10600
C768        C  0.49791893  0.49903958  0.79608259    -0.12200
C769        C  0.51599287  0.53395659  0.77030387    -0.02000
C770        C  0.48735717  0.56655148  0.75654594    -0.11100
C771        C  0.37457032  0.52113752  0.79838068     0.05300
H772        H  0.43963654  0.46761322  0.82485982     0.07300
H773        H  0.51882263  0.47332823  0.80741336     0.10700
H774        H  0.50019668  0.59407159  0.73702863     0.11000
H775        H  0.42026794  0.58831714  0.75491156     0.07300
C776        C  0.34745353  0.55655438  0.81159936    -0.11800
C777        C  0.30162706  0.55062954  0.81877484    -0.11100
C778        C  0.28159524  0.50926367  0.81225681    -0.02000
C779        C  0.30868999  0.47392470  0.79871611    -0.12200
C780        C  0.35457197  0.47971120  0.79219560    -0.10600
H781        H  0.36176717  0.58877698  0.81695868     0.07300
H782        H  0.28179663  0.57865571  0.82899995     0.11000
H783        H  0.29447292  0.44164241  0.79345691     0.10700
H784        H  0.37439091  0.45179094  0.78155018     0.07300
C785        C  0.80731106  0.85999165  0.35958406    -0.11800
C786        C  0.76710529  0.87718964  0.37753332     0.05300
C787        C  0.73605140  0.84885846  0.39875708    -0.10600
C788        C  0.74570663  0.80527972  0.40459051    -0.12200
C789        C  0.78592207  0.78769747  0.38788262    -0.02000
C790        C  0.81639086  0.81522510  0.36407555    -0.11100
C791        C  0.75946171  0.92478679  0.38308696     0.05300
H792        H  0.70557537  0.86112486  0.41467245     0.07300
H793        H  0.72266472  0.78626685  0.42549347     0.10700
H794        H  0.84820103  0.80296209  0.35169884     0.11000
H795        H  0.83220464  0.88140960  0.34384470     0.07300
C796        C  0.79091064  0.95085786  0.40446354    -0.11800
C797        C  0.77751379  0.98795784  0.42946541    -0.11100
C798        C  0.73256960  0.99922371  0.43336023    -0.02000
C799        C  0.70281752  0.97741259  0.40571062    -0.12200
C800        C  0.71632023  0.94067208  0.38037835    -0.10600
H801        H  0.82451681  0.93973637  0.40668197     0.07300
H802        H  0.80157421  0.00520096  0.44915338     0.11000
H803        H  0.66819547  0.98595447  0.40696045     0.10700
H804        H  0.69167499  0.92161228  0.36318220     0.07300
C805        C  0.66846315  0.74482848  0.33893015    -0.11800
C806        C  0.64258449  0.75794227  0.30415126     0.05300
C807        C  0.61119833  0.79121902  0.31323145    -0.10600
C808        C  0.59694828  0.80084043  0.35796541    -0.12200
C809        C  0.61562288  0.77856671  0.39315912    -0.02000
C810        C  0.65398484  0.75369103  0.38332062    -0.11100
C811        C  0.63024030  0.72396101  0.27119581     0.05300
H812        H  0.59161898  0.80311967  0.28644979     0.07300
H813        H  0.56809477  0.82098667  0.36441812     0.10700
H814        H  0.66978975  0.73631186  0.40957178     0.11000
H815        H  0.69354349  0.72021321  0.33256207     0.07300
C816        C  0.62113461  0.73727456  0.22789716    -0.11800
C817        C  0.58057086  0.72550272  0.21058423    -0.11100
C818        C  0.55057140  0.69961489  0.23676168    -0.02000
C819        C  0.56592079  0.67608141  0.27273031    -0.12200
C820        C  0.60660251  0.68775616  0.28960758    -0.10600
H821        H  0.64099241  0.76317924  0.21278748     0.07300
H822        H  0.56943864  0.74278205  0.18165761     0.11000
H823        H  0.54353162  0.65534255  0.29287490     0.10700
H824        H  0.61399092  0.67549404  0.32251690     0.07300
C825        C  0.55927036  0.76527747  0.86866029    -0.11800
C826        C  0.55742343  0.72277847  0.88603884     0.05300
C827        C  0.56702887  0.68686775  0.85728060    -0.10600
C828        C  0.57630676  0.69340970  0.81106609    -0.12200
C829        C  0.57488215  0.73579718  0.79335596    -0.02000
C830        C  0.56749282  0.77168802  0.82261555    -0.11100
C831        C  0.53837883  0.71667843  0.93214020     0.05300
H832        H  0.56539916  0.65385812  0.87025035     0.07300
H833        H  0.58162391  0.66525256  0.78886398     0.10700
H834        H  0.56631797  0.80459723  0.80955156     0.11000
H835        H  0.55126216  0.79333217  0.89022878     0.07300
C836        C  0.55405077  0.74219366  0.96772506    -0.11800
C837        C  0.52864450  0.74652806  0.00797539    -0.11100
C838        C  0.48723304  0.72534800  0.01322419    -0.02000
C839        C  0.47331222  0.69690767  0.97903999    -0.12200
C840        C  0.49879186  0.69263153  0.93861751    -0.10600
H841        H  0.58452975  0.76096271  0.96323131     0.07300
H842        H  0.54049039  0.76811904  0.03416041     0.11000
H843        H  0.44156837  0.68021356  0.98237304     0.10700
H844        H  0.48588964  0.67333345  0.91115431     0.07300
C845        C  0.70213505  0.22145505  0.02578391    -0.11800
C846        C  0.71691607  0.18860178  0.05373162     0.05300
C847        C  0.76243139  0.18513006  0.06008357    -0.10600
C848        C  0.79291193  0.21061197  0.03474838    -0.12200
C849        C  0.77813442  0.23972407  0.00277951    -0.02000
C850        C  0.73254305  0.24674830  0.00035262    -0.11100
C851        C  0.68763622  0.15115077  0.06561408     0.05300
H852        H  0.77469408  0.15966996  0.08106733     0.07300
H853        H  0.82787941  0.20490734  0.03748998     0.10700
H854        H  0.72028428  0.26988959  0.97672815     0.11000
H855        H  0.66720016  0.22486123  0.02061664     0.07300
C856        C  0.69027435  0.13016049  0.10730143    -0.11800
C857        C  0.67603949  0.08664042  0.11185030    -0.11100
C858        C  0.65967892  0.06398906  0.07456578    -0.02000
C859        C  0.65238004  0.08642673  0.03485251    -0.12200
C860        C  0.66573776  0.12995542  0.03056565    -0.10600
H861        H  0.70711660  0.14594382  0.13466854     0.07300
H862        H  0.68248923  0.06937640  0.14251595     0.11000
H863        H  0.64041816  0.06905630  0.00563207     0.10700
H864        H  0.66380607  0.14512096  0.99786317     0.07300
C865        C  0.16198525  0.03067983  0.71817728    -0.11800
C866        C  0.14016556  0.99335082  0.73616892     0.05300
C867        C  0.16492319  0.95564997  0.74337121    -0.10600
C868        C  0.21052737  0.95550321  0.73332646    -0.12200
C869        C  0.23213620  0.99314802  0.71630879    -0.02000
C870        C  0.20753959  0.03061285  0.70861477    -0.11100
C871        C  0.09186638  0.99398953  0.74749086     0.05300
H872        H  0.14905851  0.92621685  0.75664135     0.07300
H873        H  0.22911627  0.92648779  0.74016580     0.10700
H874        H  0.22372924  0.06005094  0.69567856     0.11000
H875        H  0.14413018  0.06043845  0.71264620     0.07300
C876        C  0.07347574  0.97257281  0.78600962    -0.11800
C877        C  0.02794423  0.97366803  0.79660390    -0.11100
C878        C  0.00001072  0.99643669  0.76902469    -0.02000
C879        C  0.01855222  0.01795093  0.73064483    -0.12200
C880        C  0.06376786  0.01652151  0.71989887    -0.10600
H881        H  0.09434202  0.95549364  0.80837865     0.07300
H882        H  0.01473658  0.95700538  0.82649765     0.11000
H883        H  0.99817080  0.03596323  0.70854392     0.10700
H884        H  0.07661284  0.03284724  0.68965353     0.07300
C885        C  0.03153636  0.88045291  0.07156803    -0.11800
C886        C  0.06141269  0.86124481  0.03926403     0.05300
C887        C  0.04866038  0.85764680  0.99448617    -0.10600
C888        C  0.00366692  0.85841656  0.98629501    -0.12200
C889        C  0.97268669  0.86052873  0.02334008    -0.02000
C890        C  0.98635930  0.87832448  0.06419399    -0.11100
C891        C  0.08643960  0.82472351  0.05698089     0.05300
H892        H  0.07138701  0.84455567  0.96840110     0.07300
H893        H  0.99346465  0.84627362  0.95379683     0.10700
H894        H  0.96295010  0.88183435  0.09290895     0.11000
H895        H  0.04115230  0.88587535  0.10599855     0.07300
C896        C  0.06559054  0.78320930  0.05633310    -0.11800
C897        C  0.06684243  0.75564286  0.09347798    -0.11100
C898        C  0.09229851  0.76780659  0.12973539    -0.02000
C899        C  0.12152889  0.80430369  0.12457147    -0.12200
C900        C  0.11758687  0.83332492  0.08912664    -0.10600
H901        H  0.04283464  0.77528965  0.03059879     0.07300
H902        H  0.04505528  0.72725921  0.09549700     0.11000
H903        H  0.14325358  0.81395667  0.15099037     0.10700
H904        H  0.13441246  0.86482154  0.09019911     0.07300
C905        C  0.16439548  0.72097199  0.56371245    -0.11800
C906        C  0.17998173  0.69179877  0.59499218     0.05300
C907        C  0.22410491  0.69562868  0.60736629    -0.10600
C908        C  0.25400634  0.72143260  0.58186112    -0.12200
C909        C  0.23957258  0.74391502  0.54456694    -0.02000
C910        C  0.19410988  0.74660332  0.53807323    -0.11100
C911        C  0.15868047  0.64846135  0.59902141     0.05300
H912        H  0.23704869  0.67373441  0.63179028     0.07300
H913        H  0.28882748  0.72002390  0.58830797     0.10700
H914        H  0.18192016  0.76532118  0.51059681     0.11000
H915        H  0.13072007  0.71837741  0.55397841     0.07300
C916        C  0.16162994  0.62481335  0.63894524    -0.11800
C917        C  0.16312990  0.57929778  0.63676991    -0.11100
C918        C  0.16075236  0.55740666  0.59493007    -0.02000
C919        C  0.15206234  0.58055418  0.55624357    -0.12200
C920        C  0.15014030  0.62593075  0.55841082    -0.10600
H921        H  0.16806492  0.64152200  0.67051750     0.07300
H922        H  0.16978001  0.56144067  0.66700824     0.11000
H923        H  0.14961464  0.56377652  0.52394486     0.10700
H924        H  0.14787742  0.64326017  0.52694807     0.07300
C925        C  0.12974145  0.01293846  0.52622819    -0.11800
C926        C  0.14059645  0.04571921  0.55726410     0.05300
C927        C  0.18005477  0.04283676  0.58010036    -0.10600
C928        C  0.21149708  0.01165531  0.56646981    -0.12200
C929        C  0.20323716  0.98308464  0.53029816    -0.02000
C930        C  0.16075220  0.98157349  0.51305271    -0.11100
C931        C  0.11938438  0.08848232  0.55517592     0.05300
H932        H  0.18896786  0.06796920  0.60431120     0.07300
H933        H  0.24362817  0.01298692  0.58091063     0.10700
H934        H  0.15286381  0.95894294  0.48604188     0.11000
H935        H  0.09936424  0.01454708  0.50856249     0.07300
C936        C  0.12105119  0.10993335  0.51333355    -0.11800
C937        C  0.11882123  0.15538629  0.51198318    -0.11100
C938        C  0.11369101  0.17947174  0.55238960    -0.02000
C939        C  0.10475187  0.15741323  0.59332602    -0.12200
C940        C  0.10849776  0.11208020  0.59490786    -0.10600
H941        H  0.12945164  0.09220050  0.48220341     0.07300
H942        H  0.12511911  0.17176757  0.48001639     0.11000
H943        H  0.10016784  0.17554785  0.62479257     0.10700
H944        H  0.10706156  0.09600285  0.62736249     0.07300
C945        C  0.02539349  0.72726012  0.61022905    -0.11800
C946        C  0.03773686  0.76827051  0.62784144     0.05300
C947        C  0.05897290  0.79907790  0.59949073    -0.10600
C948        C  0.06742956  0.78901948  0.55370023    -0.12200
C949        C  0.05410056  0.74822351  0.53554638    -0.02000
C950        C  0.03319569  0.71738555  0.56437895    -0.11100
C951        C  0.02740982  0.77819325  0.67586710     0.05300
H952        H  0.06893164  0.83073199  0.61277498     0.07300
H953        H  0.08383390  0.81349329  0.53244070     0.10700
H954        H  0.02289655  0.68567774  0.55155463     0.11000
H955        H  0.00900559  0.70313297  0.63197754     0.07300
C956        C  0.99250007  0.80616687  0.68890773    -0.11800
C957        C  0.97502992  0.80644479  0.73369385    -0.11100
C958        C  0.99259236  0.77886207  0.76572828    -0.02000
C959        C  0.03067227  0.75461241  0.75316600    -0.12200
C960        C  0.04756929  0.75392953  0.70854687    -0.10600
H961        H  0.97665120  0.82510539  0.66380097     0.07300
H962        H  0.94601765  0.82576334  0.74233159     0.11000
H963        H  0.04568764  0.73355464  0.77701936     0.10700
H964        H  0.07466428  0.73233682  0.69891407     0.07300
C965        C  0.04303306  0.21923084  0.34361159    -0.11800
C966        C  0.99920740  0.21152948  0.36059499     0.05300
C967        C  0.96669089  0.20325737  0.32907003    -0.10600
C968        C  0.97717452  0.20394521  0.28240057    -0.12200
C969        C  0.02057994  0.21239530  0.26555534    -0.02000
C970        C  0.05362219  0.21933433  0.29668761    -0.11100
C971        C  0.98652227  0.21435544  0.41045855     0.05300
H972        H  0.93252675  0.19783204  0.34030306     0.07300
H973        H  0.95103933  0.19826763  0.25929415     0.10700
H974        H  0.08737527  0.22617047  0.28474119     0.11000
H975        H  0.06921350  0.22530775  0.36653301     0.07300
C976        C  0.95160417  0.18853090  0.42969148    -0.11800
C977        C  0.93616988  0.19483837  0.47490368    -0.11100
C978        C  0.95550657  0.22680407  0.50255312    -0.02000
C979        C  0.99198865  0.25095249  0.48411676    -0.12200
C980        C  0.00710761  0.24497909  0.43881419    -0.10600
H981        H  0.93558832  0.16371492  0.40957699     0.07300
H982        H  0.90851734  0.17513355  0.48793274     0.11000
H983        H  0.00801769  0.27581479  0.50419959     0.10700
H984        H  0.03377540  0.26581559  0.42559270     0.07300
C985        C  0.06954092  0.13854525  0.71988078    -0.11800
C986        C  0.08085853  0.12355382  0.76219784     0.05300
C987        C  0.04636410  0.10862596  0.79215079    -0.10600
C988        C  0.00394054  0.12499700  0.78826211    -0.12200
C989        C  0.99608802  0.15253535  0.75230437    -0.02000
C990        C  0.02733538  0.15532784  0.71570813    -0.11100
C991        C  0.11609276  0.14827426  0.78451822     0.05300
H992        H  0.05371425  0.09378755  0.82389171     0.07300
H993        H  0.97967707  0.12142577  0.81620367     0.10700
H994        H  0.02127709  0.17567649  0.68702617     0.11000
H995        H  0.09553502  0.14796303  0.69548295     0.07300
C996        C  0.13712328  0.12861544  0.81988440    -0.11800
C997        C  0.14498613  0.15306369  0.85887060    -0.11100
C998        C  0.13184287  0.19719311  0.86249669    -0.02000
C999        C  0.11930360  0.21855821  0.82389189    -0.12200
C1000       C  0.11296400  0.19443248  0.78445189    -0.10600
H1001       H  0.14069698  0.09336476  0.82038991     0.07300
H1002       H  0.15622341  0.13595930  0.88787020     0.11000
H1003       H  0.11067614  0.25288171  0.82532800     0.10700
H1004       H  0.09806891  0.21105005  0.75707430     0.07300
C1005       C  0.19915788  0.07528051  0.39860137    -0.11800
C1006       C  0.24140817  0.08933541  0.41054576     0.05300
C1007       C  0.26293711  0.11943187  0.38086628    -0.10600
C1008       C  0.25778869  0.11324672  0.33439207    -0.12200
C1009       C  0.22589633  0.08296662  0.32050775    -0.02000
C1010       C  0.19230433  0.06973379  0.35235085    -0.11100
C1011       C  0.27174538  0.05374284  0.42202708     0.05300
H1012       H  0.29253292  0.13647622  0.39092184     0.07300
H1013       H  0.28295373  0.12577987  0.31046265     0.10700
H1014       H  0.16602783  0.04784850  0.34226022     0.11000
H1015       H  0.17864305  0.05627027  0.42232309     0.07300
C1016       C  0.30950644  0.06389608  0.44559493    -0.11800
C1017       C  0.34912972  0.04270671  0.43373837    -0.11100
C1018       C  0.35175674  0.01292609  0.39660957    -0.02000
C1019       C  0.31294760  0.99825753  0.37820060    -0.12200
C1020       C  0.27290676  0.01663067  0.39303942    -0.10600
H1021       H  0.30985755  0.09192522  0.46842546     0.07300
H1022       H  0.37875177  0.05399889  0.44954529     0.11000
H1023       H  0.31374039  0.97512164  0.35012796     0.10700
H1024       H  0.24361228  0.00525822  0.37706890     0.07300
C1025       C  0.37018922  0.89227758  0.02495279    -0.11800
C1026       C  0.36205370  0.86369420  0.98857554     0.05300
C1027       C  0.37250279  0.87735314  0.94423296    -0.10600
C1028       C  0.38051013  0.92163607  0.93612587    -0.12200
C1029       C  0.37770261  0.95168726  0.97245231    -0.02000
C1030       C  0.37711880  0.93658789  0.01685733    -0.11100
C1031       C  0.32792209  0.82972783  0.99658756     0.05300
H1032       H  0.36735194  0.85543172  0.91582414     0.07300
H1033       H  0.38148456  0.93283998  0.90150652     0.10700
H1034       H  0.37566256  0.95948463  0.04519353     0.11000
H1035       H  0.36320260  0.88231120  0.05960644     0.07300
C1036       C  0.28829134  0.83234393  0.97379571    -0.11800
C1037       C  0.24983556  0.81161363  0.99096825    -0.11100
C1038       C  0.25055746  0.78839525  0.03128657    -0.02000
C1039       C  0.29104538  0.78319500  0.05202586    -0.12200
C1040       C  0.32936940  0.80341052  0.03465181    -0.10600
H1041       H  0.28612197  0.85321591  0.94472766     0.07300
H1042       H  0.21936141  0.81513661  0.97383371     0.11000
H1043       H  0.29325601  0.76392728  0.08225427     0.10700
H1044       H  0.35945256  0.80102245  0.05269677     0.07300
C1045       C  0.36625823  0.37537242  0.04411639    -0.11800
C1046       C  0.34701407  0.39633988  0.00817624     0.05300
C1047       C  0.35779943  0.38243324  0.96362682    -0.10600
C1048       C  0.37937662  0.34282545  0.95597055    -0.12200
C1049       C  0.38818155  0.31655550  0.99290944    -0.02000
C1050       C  0.38655818  0.33515423  0.03651675    -0.11100
C1051       C  0.30778740  0.42367539  0.01747064     0.05300
H1052       H  0.34410895  0.39843660  0.93517503     0.07300
H1053       H  0.38105940  0.32934710  0.92185447     0.10700
H1054       H  0.39373567  0.31559977  0.06540693     0.11000
H1055       H  0.35989702  0.38666858  0.07868397     0.07300
C1056       C  0.27585348  0.41058734  0.05102589    -0.11800
C1057       C  0.23772998  0.43475639  0.05947867    -0.11100
C1058       C  0.23037945  0.47169496  0.03380547    -0.02000
C1059       C  0.26094924  0.48377758  0.99878389    -0.12200
C1060       C  0.29956542  0.45991741  0.99068154    -0.10600
H1061       H  0.28042770  0.38171372  0.07101043     0.07300
H1062       H  0.21479773  0.42569976  0.08719588     0.11000
H1063       H  0.25633984  0.51328533  0.97975347     0.10700
H1064       H  0.32342817  0.47037011  0.96438330     0.07300
C1065       C  0.90273884  0.03788773  0.20080738    -0.11800
C1066       C  0.88367055  0.03039884  0.24444810     0.05300
C1067       C  0.91121380  0.02109427  0.27965126    -0.10600
C1068       C  0.95649992  0.01654135  0.27092248    -0.12200
C1069       C  0.97531607  0.02158142  0.22691394    -0.02000
C1070       C  0.94840581  0.03382619  0.19215526    -0.11100
C1071       C  0.83513894  0.02814617  0.25291269     0.05300
H1072       H  0.89745683  0.01479704  0.31348267     0.07300
H1073       H  0.97665461  0.00728849  0.29835486     0.10700
H1074       H  0.96221568  0.03765611  0.15792574     0.11000
H1075       H  0.88215600  0.04552315  0.17319095     0.07300
C1076       C  0.80885781  0.00462001  0.22301320    -0.11800
C1077       C  0.76373718  0.99842175  0.23325396    -0.11100
C1078       C  0.74397457  0.01604852  0.27336428    -0.02000
C1079       C  0.77011377  0.04010033  0.30295511    -0.12200
C1080       C  0.81528942  0.04598790  0.29288206    -0.10600
H1081       H  0.82346121  0.98983282  0.19239349     0.07300
H1082       H  0.74433227  0.97988710  0.20971379     0.11000
H1083       H  0.75579066  0.05381359  0.33424287     0.10700
H1084       H  0.83482857  0.06423006  0.31652264     0.07300
C1085       C  0.62367269  0.96932219  0.57319446    -0.11800
C1086       C  0.65969336  0.96840947  0.60087265     0.05300
C1087       C  0.66767046  0.00559737  0.62821176    -0.10600
C1088       C  0.63300854  0.03389765  0.64025975    -0.12200
C1089       C  0.59153295  0.02513919  0.62326878    -0.02000
C1090       C  0.59022539  0.99952181  0.58312101    -0.11100
C1091       C  0.67139903  0.92619917  0.62064486     0.05300
H1092       H  0.69649839  0.00705487  0.64813235     0.07300
H1093       H  0.63624723  0.05549319  0.66929167     0.10700
H1094       H  0.55927222  0.99471189  0.56680552     0.11000
H1095       H  0.61728654  0.94212781  0.55045658     0.07300
C1096       C  0.63868847  0.90774763  0.65058508    -0.11800
C1097       C  0.64971199  0.89667492  0.69425713    -0.11100
C1098       C  0.69327084  0.90316325  0.70666201    -0.02000
C1099       C  0.72666341  0.90482520  0.67170663    -0.12200
C1100       C  0.71580190  0.91873875  0.62883197    -0.10600
H1101       H  0.60397536  0.91151694  0.64450551     0.07300
H1102       H  0.62334074  0.89302789  0.72013199     0.11000
H1103       H  0.76097778  0.90757396  0.68018883     0.10700
H1104       H  0.74177480  0.93152511  0.60597124     0.07300
C1105       C  0.41408508  0.34927427  0.71177550    -0.11800
C1106       C  0.39087264  0.33015132  0.74929954     0.05300
C1107       C  0.41125932  0.32965400  0.79067232    -0.10600
C1108       C  0.45699187  0.33576189  0.79090305    -0.12200
C1109       C  0.48166090  0.34052872  0.74960754    -0.02000
C1110       C  0.46006742  0.35241971  0.71121979    -0.11100
C1111       C  0.36215872  0.29271563  0.73774550     0.05300
H1112       H  0.39394409  0.31609892  0.82032882     0.07300
H1113       H  0.47347102  0.32736047  0.82120119     0.10700
H1114       H  0.47848207  0.35669409  0.67918531     0.11000
H1115       H  0.39871045  0.35138350  0.67962613     0.07300
C1116       C  0.32781362  0.30110893  0.70942390    -0.11800
C1117       C  0.32714762  0.27926857  0.66775058    -0.11100
C1118       C  0.36041802  0.24876405  0.65518429    -0.02000
C1119       C  0.38576678  0.23201363  0.68909012    -0.12200
C1120       C  0.38481838  0.25281094  0.73153424    -0.10600
H1121       H  0.30825112  0.33036090  0.71463781     0.07300
H1122       H  0.30492172  0.29106491  0.64325370     0.11000
H1123       H  0.41017204  0.20705789  0.68133301     0.10700
H1124       H  0.40984807  0.24402112  0.75454369     0.07300
C1125       C  0.48755811  0.29406031  0.08421152    -0.11800
C1126       C  0.51272880  0.32182643  0.11147633     0.05300
C1127       C  0.55296261  0.33901029  0.09320986    -0.10600
C1128       C  0.56860084  0.32694230  0.04954560    -0.12200
C1129       C  0.54431007  0.29747948  0.02311746    -0.02000
C1130       C  0.50305285  0.28215861  0.04054467    -0.11100
C1131       C  0.49967712  0.32759764  0.16031627     0.05300
H1132       H  0.57297231  0.36078010  0.11317068     0.07300
H1133       H  0.60040041  0.33968661  0.03709989     0.10700
H1134       H  0.48324056  0.25983606  0.02101091     0.11000
H1135       H  0.45692648  0.27944769  0.09750440     0.07300
C1136       C  0.45484156  0.32994920  0.17514739    -0.11800
C1137       C  0.44208611  0.32452851  0.22089469    -0.11100
C1138       C  0.47397219  0.31642592  0.25241136    -0.02000
C1139       C  0.51892433  0.31840117  0.23830554    -0.12200
C1140       C  0.53168032  0.32412976  0.19278163    -0.10600
H1141       H  0.42948104  0.33357368  0.15102969     0.07300
H1142       H  0.40720863  0.32349658  0.23095828     0.11000
H1143       H  0.54422358  0.31299824  0.26211963     0.10700
H1144       H  0.56647478  0.32225131  0.18269941     0.07300
C1145       C  0.13476111  0.37944411  0.28611481    -0.11800
C1146       C  0.13828266  0.34175657  0.25786787     0.05300
C1147       C  0.09977143  0.32316822  0.24173798    -0.09000
C1148       C  0.06135222  0.34781159  0.24362078    -0.12200
C1149       C  0.06290439  0.39212213  0.25829384    -0.02000
C1150       C  0.09751038  0.40582445  0.28472281    -0.11100
C1151       C  0.17918748  0.33890542  0.22892936     0.05300
H1152       H  0.10124028  0.29364990  0.22099766     0.07300
H1153       H  0.03359648  0.33527015  0.22545196     0.10700
H1154       H  0.09902075  0.43905885  0.29787493     0.11000
H1155       H  0.16399075  0.39355364  0.30044103     0.07300
C1156       C  0.18143080  0.36990924  0.19391130    -0.11800
C1157       C  0.21252447  0.40403241  0.19608331    -0.11100
C1158       C  0.24282383  0.40311939  0.23022167    -0.02000
C1159       C  0.25151930  0.36222694  0.24931983    -0.12200
C1160       C  0.21811817  0.33029715  0.25041735    -0.10600
H1161       H  0.15276519  0.37518016  0.17430733     0.07300
H1162       H  0.20681380  0.43401945  0.17827106     0.11000
H1163       H  0.27755077  0.35929794  0.27284349     0.10700
H1164       H  0.21864322  0.30484589  0.27549775     0.07300
C1165       C  0.74374635  0.54257409  0.03475383    -0.11800
C1166       C  0.70057178  0.54283812  0.01910198     0.05300
C1167       C  0.68969287  0.51310705  0.98465456    -0.10600
C1168       C  0.72217951  0.48727752  0.96307856    -0.12200
C1169       C  0.76609909  0.48984450  0.97609582    -0.02000
C1170       C  0.77619396  0.51599340  0.01360618    -0.11100
C1171       C  0.67017195  0.57918147  0.03224622     0.05300
H1172       H  0.65655937  0.51161121  0.97257625     0.07300
H1173       H  0.71319245  0.46641175  0.93500366     0.10700
H1174       H  0.80973066  0.51818716  0.02455769     0.11000
H1175       H  0.75345064  0.56526105  0.06098359     0.07300
C1176       C  0.66978320  0.59846437  0.07577896    -0.11800
C1177       C  0.65215911  0.64025958  0.08342847    -0.11100
C1178       C  0.63484614  0.66291059  0.04759499    -0.02000
C1179       C  0.62974861  0.64128524  0.00613599    -0.12200
C1180       C  0.64735281  0.59987767  0.99841438    -0.10600
H1181       H  0.68631395  0.58291258  0.10276359     0.07300
H1182       H  0.65679946  0.65671692  0.11554544     0.11000
H1183       H  0.61690405  0.65856146  0.97797090     0.10700
H1184       H  0.64720786  0.58648843  0.96435869     0.07300
loop_ 
_geom_bond_atom_site_label_1 
_geom_bond_atom_site_label_2 
_geom_bond_distance 
_geom_bond_site_symmetry_2 
_ccdc_geom_bond_type 
O1           Ni7   1.951       .  S
O1           C22   1.279       .  A
O2          Ni25   1.981       .  S
O2           C11   1.291       .  A
O3           Ni7   1.903       .  S
O3          Ni25   1.905       .  S
O3          Ni19   1.912       .  S
O3           H26   0.964       .  S
C4           O21   1.273       .  A
C4           O13   1.276       .  A
C4          C337   1.449       .  S
O5          Ni24   1.914       .  S
O5           C11   1.269       .  A
O6          Ni24   1.922       .  S
O6            C8   1.268       .  A
Ni7          O10   1.927       .  S
Ni7          O12   1.887       .  S
C8           O18   1.270       .  A
C8          C345   1.468       .  S
O9          Ni25   1.923       .  S
O9           C15   1.286       .  A
O10          C15   1.284       .  A
C11         C325   1.502       .  S
O12          C14   1.261       .  A
O13         Ni24   1.906       .  S
C14          O20   1.279       .  A
C14         C313   1.467       .  S
C15         C319   1.452       .  S
H16          O17   0.965       .  S
O17         Ni25   1.934       .  S
O17         Ni19   1.918       .  S
O17         Ni24   1.910       .  S
O18         Ni19   1.923       .  S
Ni19         O23   1.932       .  S
Ni19         O21   1.914       .  S
O20         Ni25   1.953       .  S
C22          O23   1.271       .  A
C22         C331   1.497       .  S
O27         Ni33   1.943       .  S
O27          C48   1.280       .  A
O28         Ni51   1.901       .  S
O28          C37   1.270       .  A
O29         Ni33   1.910       .  S
O29         Ni51   1.906       .  S
O29         Ni45   1.911       .  S
O29          H52   0.970       .  S
C30          O47   1.277       .  A
C30          O39   1.283   1_455  A
C30         C277   1.480       .  S
O31         Ni50   1.923       .  S
O31          C37   1.275       .  A
O32         Ni50   1.905       .  S
O32          C34   1.266       .  A
Ni33         O36   1.924       .  S
Ni33         O38   1.934       .  S
C34          O44   1.293       .  A
C34         C327   1.506       .  S
O35         Ni51   1.947       .  S
O35          C41   1.287       .  A
O36          C41   1.280       .  A
C37         C343   1.452       .  S
O38          C40   1.272       .  A
O39         Ni50   1.940       .  S
C40          O46   1.265       .  A
C40          C87   1.482   1_655  S
C41         C349   1.470       .  S
H42          O43   0.970       .  S
O43         Ni51   1.934       .  S
O43         Ni45   1.882       .  S
O43         Ni50   1.891       .  S
O44         Ni45   1.993       .  S
Ni45         O49   1.912       .  S
Ni45         O47   1.923   1_655  S
O46         Ni51   1.923       .  S
C48          O49   1.279       .  A
C48         C297   1.483   1_655  S
O53         Ni59   1.939       .  S
O53          C74   1.275       .  A
O54         Ni77   1.905       .  S
O54          C63   1.271   1_554  A
O55         Ni59   1.892       .  S
O55         Ni77   1.919       .  S
O55         Ni71   1.918       .  S
O55          H78   0.963       .  S
C56          O73   1.273   1_556  A
C56          O65   1.288       .  A
C56         C187   1.497       .  S
O57         Ni76   1.953       .  S
O57          C63   1.282       .  A
O58         Ni76   1.900       .  S
O58          C60   1.263       .  A
Ni59         O62   1.925       .  S
Ni59         O64   1.905       .  S
C60          O70   1.282       .  A
C60         C309   1.484       .  S
O61         Ni77   1.954       .  S
O61          C67   1.284       .  A
O62          C67   1.276       .  A
C63          C83   1.474       .  S
O64          C66   1.270       .  A
O65         Ni76   1.974   1_455  S
C66          O72   1.270       .  A
C66          C89   1.447   1_655  S
C67         C351   1.479       .  S
H68          O69   0.971   1_455  S
O69         Ni77   1.944       .  S
O69         Ni71   1.894       .  S
O69         Ni76   1.914   1_554  S
O70         Ni71   1.956   1_556  S
Ni71         O75   1.923       .  S
Ni71         O73   1.914   1_655  S
O72         Ni77   1.919       .  S
C74          O75   1.274       .  A
C74         C195   1.492   1_655  S
C79        C1169   1.476       .  S
C79          N80   1.354       .  A
C79          N84   1.359       .  A
N80          C81   1.352       .  A
C81          C98   1.470       .  S
C81          N82   1.365       .  A
N82          C83   1.363       .  A
C83          N84   1.362       .  A
C85        C1149   1.477       .  S
C85          N86   1.367       .  A
C85          N90   1.344       .  A
N86          C87   1.373       .  A
C87          N88   1.367   1_455  A
N88          C89   1.359   1_655  A
C89          N90   1.336       .  A
O91         Ni97   1.930       .  S
O91         C112   1.274       .  A
O92        Ni115   1.926       .  S
O92         C101   1.276       .  A
O93         Ni97   1.883       .  S
O93        Ni115   1.927       .  S
O93        Ni109   1.917       .  S
O93         H116   0.966       .  S
C94         O111   1.272       .  A
C94         O103   1.281       .  A
C94         C339   1.471       .  S
O95        Ni114   1.940       .  S
O95         C101   1.276       .  A
O96        Ni114   1.897       .  S
O96          C98   1.263       .  A
Ni97        O100   1.922       .  S
Ni97        O102   1.898       .  S
C98         O108   1.277       .  A
O99        Ni115   1.945       .  S
O99         C105   1.279       .  A
O100        C105   1.275       .  A
C101        C307   1.480       .  S
O102        C104   1.270       .  A
O103       Ni114   1.948       .  S
C104        O110   1.280       .  A
C104        C151   1.465       .  S
C105        C147   1.476       .  S
H106        O107   0.970       .  S
O107       Ni115   1.940       .  S
O107       Ni109   1.903       .  S
O107       Ni114   1.927       .  S
O108       Ni109   1.940       .  S
Ni109       O113   1.945       .  S
Ni109       O111   1.893       .  S
O110       Ni115   1.943       .  S
C112        O113   1.275       .  A
C112        C333   1.501       .  S
O117       Ni123   1.948       .  S
O117        C138   1.282       .  A
O118       Ni141   1.910       .  S
O118        C127   1.271       .  A
O119       Ni123   1.918       .  S
O119       Ni141   1.895       .  S
O119       Ni135   1.916       .  S
O119        H142   0.965       .  S
C120        O137   1.272       .  A
C120        O129   1.291       .  A
C120        C301   1.494       .  S
O121       Ni140   1.953       .  S
O121        C127   1.284       .  A
O122       Ni140   1.883       .  S
O122        C124   1.260       .  A
Ni123       O126   1.935       .  S
Ni123       O128   1.933       .  S
C124        O134   1.290       .  A
C124        C175   1.478       .  S
O125       Ni141   1.953       .  S
O125        C131   1.288       .  A
O126        C131   1.285       .  A
C127        C169   1.472       .  S
O128        C130   1.266       .  A
O129       Ni140   1.965       .  S
C130        O136   1.269       .  A
C130        C153   1.481       .  S
C131        C145   1.481       .  S
H132        O133   0.966       .  S
O133       Ni141   1.933       .  S
O133       Ni135   1.882       .  S
O133       Ni140   1.895       .  S
O134       Ni135   1.971       .  S
Ni135       O139   1.901       .  S
Ni135       O137   1.919       .  S
O136       Ni141   1.924       .  S
C138        O139   1.273       .  A
C138        C159   1.486       .  S
C143       C1129   1.485   1_556  S
C143        N144   1.364       .  A
C143        N148   1.359       .  A
N144        C145   1.360       .  A
C145        N146   1.364       .  A
N146        C147   1.364       .  A
C147        N148   1.356       .  A
C149       C1109   1.460       .  S
C149        N150   1.347       .  A
C149        N154   1.351       .  A
N150        C151   1.359       .  A
C151        N152   1.371       .  A
N152        C153   1.369       .  A
C153        N154   1.352       .  A
C155       C1089   1.480       .  S
C155        N156   1.341   1_545  A
C155        N160   1.360       .  A
N156        C157   1.341       .  A
C157        C230   1.472       .  S
C157        N158   1.368       .  A
N158        C159   1.375   1_565  A
C159        N160   1.370       .  A
C161       C1069   1.472   1_455  S
C161        N162   1.355   1_545  A
C161        N166   1.362       .  A
N162        C163   1.351       .  A
C163        C252   1.476       .  S
C163        N164   1.363       .  A
N164        C165   1.367   1_565  A
C165        C211   1.475       .  S
C165        N166   1.362       .  A
C167       C1049   1.460       .  S
C167        N168   1.357       .  A
C167        N172   1.359   1_556  A
N168        C169   1.355       .  A
C169        N170   1.362       .  A
N170        C171   1.368   1_556  A
C171        C200   1.476       .  S
C171        N172   1.350       .  A
C173       C1029   1.457       .  S
C173        N174   1.350   1_565  A
C173        N178   1.359   1_565  A
N174        C175   1.350       .  A
C175        N176   1.380       .  A
N176        C177   1.371       .  A
C177        C218   1.503   1_556  S
C177        N178   1.355       .  A
C179       C1009   1.469       .  S
C179        N180   1.351       .  A
C179        N184   1.347       .  A
N180        C181   1.351   1_545  A
C181        C270   1.472       .  S
C181        N182   1.368       .  A
N182        C183   1.372   1_565  A
C183        C210   1.474       .  S
C183        N184   1.362       .  A
C185        C998   1.471       .  S
C185        N186   1.369       .  A
C185        N190   1.350       .  A
N186        C187   1.365       .  A
C187        N188   1.369       .  A
N188        C189   1.366       .  A
C189        C204   1.468   1_556  S
C189        N190   1.343       .  A
C191        C969   1.491       .  S
C191        N192   1.361       .  A
C191        N196   1.360       .  A
N192        C193   1.364       .  A
C193        C207   1.486       .  S
C193        N194   1.371       .  A
N194        C195   1.370       .  A
C195        N196   1.361       .  A
O197       Ni203   1.963       .  S
O197        C218   1.282       .  A
O198       Ni221   1.927       .  S
O198        C207   1.279       .  A
O199       Ni203   1.925       .  S
O199       Ni221   1.917       .  S
O199       Ni215   1.905       .  S
O199        H222   0.967       .  S
C200        O217   1.263       .  A
C200        O209   1.290       .  A
O201       Ni220   1.954       .  S
O201        C207   1.283       .  A
O202       Ni220   1.893       .  S
O202        C204   1.263       .  A
Ni203       O206   1.937       .  S
Ni203       O208   1.922       .  S
C204        O214   1.284       .  A
O205       Ni221   1.936       .  S
O205        C211   1.284       .  A
O206        C211   1.284       .  A
O208        C210   1.266       .  A
O209       Ni220   1.969       .  S
C210        O216   1.266       .  A
H212        O213   0.969       .  S
O213       Ni221   1.918       .  S
O213       Ni215   1.887       .  S
O213       Ni220   1.889       .  S
O214       Ni215   1.950       .  S
Ni215       O219   1.914   1_554  S
Ni215       O217   1.881       .  S
O216       Ni221   1.912       .  S
C218        O219   1.270   1_554  A
O223       Ni229   1.933       .  S
O223        C244   1.275       .  A
O224       Ni247   1.940       .  S
O224        C233   1.273       .  A
O225       Ni229   1.917       .  S
O225       Ni247   1.902       .  S
O225       Ni241   1.934       .  S
O225        H248   0.966       .  S
C226        O243   1.282       .  A
C226        O235   1.286       .  A
C226        C315   1.486       .  S
O227       Ni246   1.951       .  S
O227        C233   1.277       .  A
O228       Ni246   1.917       .  S
O228        C230   1.262       .  A
Ni229       O232   1.932       .  S
Ni229       O234   1.915       .  S
C230        O240   1.272       .  A
O231       Ni247   1.910       .  S
O231        C237   1.275       .  A
O232        C237   1.282       .  A
C233        C303   1.493       .  S
O234        C236   1.266       .  A
O235       Ni246   1.943       .  S
C236        O242   1.277       .  A
C236        C291   1.477       .  S
C237        C285   1.460       .  S
H238        O239   0.965       .  S
O239       Ni247   1.917       .  S
O239       Ni241   1.907       .  S
O239       Ni246   1.927       .  S
O240       Ni241   1.915       .  S
Ni241       O245   1.927       .  S
Ni241       O243   1.937       .  S
O242       Ni247   1.936       .  S
C244        O245   1.278       .  A
C244        C321   1.488       .  S
O249       Ni255   1.972       .  S
O249        C270   1.279       .  A
O250       Ni273   1.931       .  S
O250        C259   1.276       .  A
O251       Ni255   1.943       .  S
O251       Ni273   1.895       .  S
O251       Ni267   1.921       .  S
O251        H274   0.967       .  S
C252        O269   1.278       .  A
C252        O261   1.283       .  A
O253       Ni272   1.917       .  S
O253        C259   1.274       .  A
O254       Ni272   1.907       .  S
O254        C256   1.265       .  A
Ni255       O258   1.947       .  S
Ni255       O260   1.917       .  S
C256        O266   1.272       .  A
C256        C295   1.450       .  S
O257       Ni273   1.924       .  S
O257        C263   1.286       .  A
O258        C263   1.289       .  A
C259        C279   1.461       .  S
O260        C262   1.262       .  A
O261       Ni272   1.930       .  S
C262        O268   1.260       .  A
C262        C283   1.459       .  S
C263        C289   1.475       .  S
H264        O265   0.963       .  S
O265       Ni273   1.908       .  S
O265       Ni267   1.892       .  S
O265       Ni272   1.885       .  S
O266       Ni267   1.913       .  S
Ni267       O271   1.886       .  S
Ni267       O269   1.929       .  S
O268       Ni273   1.902       .  S
C270        O271   1.259       .  A
C275        C949   1.478       .  S
C275        N276   1.360       .  A
C275        N280   1.352       .  A
N276        C277   1.361       .  A
C277        N278   1.367       .  A
N278        C279   1.363       .  A
C279        N280   1.350       .  A
C281        C929   1.472       .  S
C281        N282   1.349       .  A
C281        N286   1.360       .  A
N282        C283   1.346       .  A
C283        N284   1.357       .  A
N284        C285   1.362       .  A
C285        N286   1.363       .  A
C287        C909   1.463       .  S
C287        N288   1.351       .  A
C287        N292   1.351       .  A
N288        C289   1.350       .  A
C289        N290   1.369       .  A
N290        C291   1.373       .  A
C291        N292   1.355       .  A
C293        C898   1.482       .  S
C293        N294   1.340       .  A
C293        N298   1.367       .  A
N294        C295   1.338       .  A
C295        N296   1.361       .  A
N296        C297   1.367       .  A
C297        N298   1.372       .  A
C299        C869   1.469       .  S
C299        N300   1.355   1_565  A
C299        N304   1.359       .  A
N300        C301   1.354       .  A
C301        N302   1.376   1_545  A
N302        C303   1.374       .  A
C303        N304   1.359       .  A
C305        C849   1.470   1_556  S
C305        N306   1.352       .  A
C305        N310   1.357       .  A
N306        C307   1.349       .  A
C307        N308   1.368       .  A
N308        C309   1.375       .  A
C309        N310   1.358       .  A
C311        C829   1.465       .  S
C311        N312   1.358       .  A
C311        N316   1.359       .  A
N312        C313   1.355       .  A
C313        N314   1.370       .  A
N314        C315   1.364       .  A
C315        N316   1.353       .  A
C317        C809   1.478       .  S
C317        N318   1.343       .  A
C317        N322   1.363       .  A
N318        C319   1.338       .  A
C319        N320   1.365       .  A
N320        C321   1.369       .  A
C321        N322   1.372       .  A
C323        C789   1.481       .  S
C323        N324   1.361       .  A
C323        N328   1.365       .  A
N324        C325   1.346       .  A
C325        N326   1.373       .  A
N326        C327   1.380       .  A
C327        N328   1.361       .  A
C329        C769   1.492       .  S
C329        N330   1.359       .  A
C329        N334   1.354       .  A
N330        C331   1.364       .  A
C331        N332   1.380       .  A
N332        C333   1.375       .  A
C333        N334   1.358       .  A
C335        C749   1.479       .  S
C335        N336   1.349       .  A
C335        N340   1.366       .  A
N336        C337   1.345       .  A
C337        N338   1.351       .  A
N338        C339   1.361       .  A
C339        N340   1.366       .  A
C341        C729   1.468       .  S
C341        N342   1.356       .  A
C341        N346   1.359       .  A
N342        C343   1.355       .  A
C343        N344   1.358       .  A
N344        C345   1.356       .  A
C345        N346   1.353       .  A
C347        C709   1.488       .  S
C347        N348   1.361       .  A
C347        N352   1.365       .  A
N348        C349   1.354       .  A
C349        N350   1.360       .  A
N350        C351   1.362       .  A
C351        N352   1.363       .  A
O353       Ni359   1.936       .  S
O353        C374   1.279       .  A
O354       Ni377   1.915       .  S
O354        C363   1.262   1_455  A
O355       Ni359   1.913       .  S
O355       Ni377   1.896       .  S
O355       Ni371   1.935       .  S
O355        H378   0.967       .  S
C356        O373   1.288   1_655  A
C356        O365   1.287       .  A
C356        C625   1.484       .  S
O357       Ni376   1.963       .  S
O357        C363   1.277       .  A
O358       Ni376   1.911       .  S
O358        C360   1.261       .  A
Ni359       O362   1.956       .  S
Ni359       O364   1.894       .  S
C360        O370   1.270   1_655  A
C360        C629   1.475       .  S
O361       Ni377   1.915       .  S
O361        C367   1.274       .  A
O362        C367   1.287       .  A
C363        C607   1.477   1_655  S
O364        C366   1.259       .  A
O365       Ni376   1.944       .  S
C366        O372   1.284       .  A
C366        C479   1.474       .  S
C367        C613   1.484       .  S
H368        O369   0.963       .  S
O369       Ni377   1.926       .  S
O369       Ni371   1.898       .  S
O369       Ni376   1.946   1_455  S
O370       Ni371   1.927       .  S
Ni371       O375   1.917       .  S
Ni371       O373   1.950       .  S
O372       Ni377   1.958       .  S
C374        O375   1.272       .  A
C374        C683   1.465       .  S
O379       Ni385   1.986       .  S
O379        C400   1.290       .  A
O380       Ni403   1.901       .  S
O380        C389   1.271       .  A
O381       Ni385   1.893       .  S
O381       Ni403   1.869       .  S
O381       Ni397   1.915       .  S
O381        H404   0.964       .  S
C382        O399   1.281       .  A
C382        O391   1.276       .  A
C382        C641   1.472       .  S
O383       Ni402   1.930       .  S
O383        C389   1.275       .  A
O384       Ni402   1.918       .  S
O384        C386   1.266       .  A
Ni385       O388   1.995       .  S
Ni385       O390   1.873       .  S
C386        O396   1.261       .  A
C386        C671   1.434       .  S
O387       Ni403   1.921       .  S
O387        C393   1.278       .  A
O388        C393   1.299       .  A
C389        C677   1.460       .  S
O390        C392   1.256       .  A
O391       Ni402   1.920       .  S
C392        O398   1.286       .  A
C392        C655   1.466       .  S
C393        C407   1.511       .  S
H394        O395   0.965       .  S
O395       Ni403   1.919       .  S
O395       Ni397   1.904       .  S
O395       Ni402   1.908       .  S
O396       Ni397   1.881       .  S
Ni397       O401   1.877       .  S
Ni397       O399   1.946       .  S
O398       Ni403   1.959       .  S
C400        O401   1.259       .  A
C400        C617   1.477       .  S
C405       C1118   1.481       .  S
C405        N406   1.371       .  A
C405        N410   1.355       .  A
N406        C407   1.367       .  A
C407        N408   1.377       .  A
N408        C409   1.371       .  A
C409        C424   1.486       .  S
C409        N410   1.343       .  A
O411       Ni417   1.951       .  S
O411        C432   1.280       .  A
O412       Ni435   1.908       .  S
O412        C421   1.274       .  A
O413       Ni417   1.888       .  S
O413       Ni435   1.876       .  S
O413       Ni429   1.909       .  S
O413        H436   0.964       .  S
C414        O431   1.279       .  A
C414        O423   1.286       .  A
C414        C441   1.479       .  S
O415       Ni434   1.960       .  S
O415        C421   1.285       .  A
O416       Ni434   1.941       .  S
O416        C418   1.265       .  A
Ni417       O420   1.969       .  S
Ni417       O422   1.896       .  S
C418        O428   1.265       .  A
C418        C659   1.474       .  S
O419       Ni435   1.903       .  S
O419        C425   1.272       .  A
O420        C425   1.291       .  A
C421        C477   1.496       .  S
O422        C424   1.263       .  A
O423       Ni434   1.949       .  S
C424        O430   1.291       .  A
C425        C685   1.485       .  S
H426        O427   0.969       .  S
O427       Ni435   1.924       .  S
O427       Ni429   1.904       .  S
O427       Ni434   1.931       .  S
O428       Ni429   1.912       .  S
Ni429       O433   1.901       .  S
Ni429       O431   1.934       .  S
O430       Ni435   1.978       .  S
C432        O433   1.267       .  A
C432        C679   1.465       .  S
C437        C718   1.477       .  S
C437        N438   1.361       .  A
C437        N442   1.362       .  A
N438        C439   1.358       .  A
C439        C463   1.487       .  S
C439        N440   1.366       .  A
N440        C441   1.367       .  A
C441        N442   1.360       .  A
C443        C838   1.468       .  S
C443        N444   1.352       .  A
C443        N448   1.345       .  A
N444        C445   1.360       .  A
C445        C470   1.494       .  S
C445        N446   1.378       .  A
N446        C447   1.379       .  A
C447        C502   1.472       .  S
C447        N448   1.346       .  A
O449       Ni455   1.933       .  S
O449        C470   1.279       .  A
O450       Ni473   1.879       .  S
O450        C459   1.252       .  A
O451       Ni455   1.858       .  S
O451       Ni473   1.891       .  S
O451       Ni467   1.910       .  S
O451        H474   0.965       .  S
C452        O469   1.286       .  A
C452        O461   1.285       .  A
C452        C647   1.454       .  S
O453       Ni472   1.968       .  S
O453        C459   1.277       .  A
O454       Ni472   1.929       .  S
O454        C456   1.263       .  A
Ni455       O458   1.943       .  S
Ni455       O460   1.890       .  S
C456        O466   1.268       .  A
C456        C665   1.474       .  S
O457       Ni473   1.941       .  S
O457        C463   1.282       .  A
O458        C463   1.286       .  A
C459        C661   1.465       .  S
O460        C462   1.267       .  A
O461       Ni472   1.933       .  S
C462        O468   1.277       .  A
C462        C637   1.472       .  S
H464        O465   0.969       .  S
O465       Ni473   1.930       .  S
O465       Ni467   1.900       .  S
O465       Ni472   1.949       .  S
O466       Ni467   1.922       .  S
Ni467       O471   1.963       .  S
Ni467       O469   1.919       .  S
O468       Ni473   1.958       .  S
C470        O471   1.284       .  A
C475        C918   1.452       .  S
C475        N476   1.356       .  A
C475        N480   1.343       .  A
N476        C477   1.359       .  A
C477        N478   1.375       .  A
N478        C479   1.377       .  A
C479        N480   1.344       .  A
O481       Ni487   1.931       .  S
O481        C502   1.273       .  A
O482       Ni505   1.916       .  S
O482        C491   1.275       .  A
O483       Ni487   1.964       .  S
O483       Ni505   1.921       .  S
O483       Ni499   1.953       .  S
O483        H506   0.965       .  S
C484        O501   1.284       .  A
C484        O493   1.278       .  A
C484        C509   1.467       .  S
O485       Ni504   1.941       .  S
O485        C491   1.279       .  A
O486       Ni504   1.900       .  S
O486        C488   1.262       .  A
Ni487       O490   1.942       .  S
Ni487       O492   1.931       .  S
C488        O498   1.287       .  A
C488        C697   1.484       .  S
O489       Ni505   1.912       .  S
O489        C495   1.277       .  A
O490        C495   1.279       .  A
C491        C643   1.480       .  S
O492        C494   1.263       .  A
O493       Ni504   1.926       .  S
C494        O500   1.267       .  A
C494        C635   1.479       .  S
C495        C673   1.470       .  S
H496        O497   0.966       .  S
O497       Ni505   1.921       .  S
O497       Ni499   1.895       .  S
O497       Ni504   1.888       .  S
O498       Ni499   1.968       .  S
Ni499       O503   1.929       .  S
Ni499       O501   1.945       .  S
O500       Ni505   1.901       .  S
C502        O503   1.274       .  A
C507       C1178   1.462       .  S
C507        N508   1.360       .  A
C507        N512   1.354       .  A
N508        C509   1.362       .  A
C509        N510   1.362       .  A
N510        C511   1.361       .  A
C511        C559   1.469   1_554  S
C511        N512   1.347       .  A
O513       Ni519   1.963       .  S
O513        C534   1.280       .  A
O514       Ni537   1.885       .  S
O514        C523   1.264       .  A
O515       Ni519   1.924       .  S
O515       Ni537   1.893       .  S
O515       Ni531   1.939       .  S
O515        H538   0.973       .  S
C516        O533   1.279       .  A
C516        O525   1.282       .  A
C516        C701   1.457       .  S
O517       Ni536   1.941       .  S
O517        C523   1.274       .  A
O518       Ni536   1.896       .  S
O518        C520   1.268       .  A
Ni519       O522   1.974       .  S
Ni519       O524   1.908       .  S
C520        O530   1.281       .  A
C520        C541   1.479       .  S
O521       Ni537   1.911       .  S
O521        C527   1.272       .  A
O522        C527   1.289       .  A
C523        C619   1.460       .  S
O524        C526   1.265       .  A
O525       Ni536   1.927       .  S
C526        O532   1.278       .  A
C526        C623   1.497       .  S
C527        C653   1.492       .  S
H528        O529   0.965       .  S
O529       Ni537   1.898       .  S
O529       Ni531   1.907       .  S
O529       Ni536   1.880       .  S
O530       Ni531   1.953       .  S
Ni531       O535   1.887       .  S
Ni531       O533   1.928       .  S
O532       Ni537   1.968       .  S
C534        O535   1.264       .  A
C534        C631   1.475       .  S
C539       C1098   1.469       .  S
C539        N540   1.352       .  A
C539        N544   1.353       .  A
N540        C541   1.349   1_565  A
C541        N542   1.369   1_545  A
N542        C543   1.374       .  A
C543        C552   1.481       .  S
C543        N544   1.364       .  A
O545       Ni551   1.932       .  S
O545        C566   1.276       .  A
O546       Ni569   1.915   1_554  S
O546        C555   1.271       .  A
O547       Ni551   1.899       .  S
O547       Ni569   1.889       .  S
O547       Ni563   1.930       .  S
O547        H570   0.970       .  S
C548        O565   1.285       .  A
C548        O557   1.281       .  A
C548        C703   1.468       .  S
O549       Ni568   1.961       .  S
O549        C555   1.283   1_556  A
O550       Ni568   1.932       .  S
O550        C552   1.270       .  A
Ni551       O554   1.941       .  S
Ni551       O556   1.913       .  S
C552        O562   1.269       .  A
O553       Ni569   1.896       .  S
O553        C559   1.267       .  A
O554        C559   1.282       .  A
C555        C695   1.500       .  S
O556        C558   1.267       .  A
O557       Ni568   1.929       .  S
C558        O564   1.281       .  A
C558        C689   1.482   1_556  S
H560        O561   0.970       .  S
O561       Ni569   1.908       .  S
O561       Ni563   1.915       .  S
O561       Ni568   1.912       .  S
O562       Ni563   1.922       .  S
Ni563       O567   1.935       .  S
Ni563       O565   1.941       .  S
O564       Ni569   1.949       .  S
C566        O567   1.281       .  A
C566        C601   1.477       .  S
O571       Ni577   1.907       .  S
O571        C592   1.268   1_556  A
O572       Ni595   1.892       .  S
O572        C581   1.267   1_455  A
O573       Ni577   1.873       .  S
O573       Ni595   1.876       .  S
O573       Ni589   1.937       .  S
O573        H596   0.967       .  S
C574        O591   1.290   1_654  A
C574        O583   1.287       .  A
C574        C691   1.498       .  S
O575       Ni594   1.961       .  S
O575        C581   1.280       .  A
O576       Ni594   1.914       .  S
O576        C578   1.265       .  A
Ni577       O580   1.928       .  S
Ni577       O582   1.919       .  S
C578        O588   1.268   1_655  A
C578        C599   1.466       .  S
O579       Ni595   1.951       .  S
O579        C585   1.283       .  A
O580        C585   1.279       .  A
C581        C605   1.476   1_655  S
O582        C584   1.271       .  A
O583       Ni594   1.949   1_554  S
C584        O590   1.281       .  A
C584        C667   1.478   1_556  S
C585        C611   1.490       .  S
H586        O587   0.966   1_554  S
O587       Ni595   1.934       .  S
O587       Ni589   1.910       .  S
O587       Ni594   1.944   1_455  S
O588       Ni589   1.922       .  S
Ni589       O593   1.964   1_556  S
Ni589       O591   1.940       .  S
O590       Ni595   1.953       .  S
C592        O593   1.285       .  A
C592        C649   1.484       .  S
C597        C958   1.483       .  S
C597        N598   1.356       .  A
C597        N602   1.366       .  A
N598        C599   1.349       .  A
C599        N600   1.360       .  A
N600        C601   1.363       .  A
C601        N602   1.364       .  A
C603        C758   1.464       .  S
C603        N604   1.348       .  A
C603        N608   1.346       .  A
N604        C605   1.362       .  A
C605        N606   1.379   1_455  A
N606        C607   1.375   1_655  A
C607        N608   1.344       .  A
C609        C778   1.492       .  S
C609        N610   1.359       .  A
C609        N614   1.363       .  A
N610        C611   1.360       .  A
C611        N612   1.365       .  A
N612        C613   1.370       .  A
C613        N614   1.362       .  A
C615        C798   1.480   1_545  S
C615        N616   1.356       .  A
C615        N620   1.353       .  A
N616        C617   1.361       .  A
C617        N618   1.363       .  A
N618        C619   1.369       .  A
C619        N620   1.353       .  A
C621        C978   1.500       .  S
C621        N622   1.373       .  A
C621        N626   1.365       .  A
N622        C623   1.367       .  A
C623        N624   1.366       .  A
N624        C625   1.360       .  A
C625        N626   1.357       .  A
C627        C989   1.460       .  S
C627        N628   1.352       .  A
C627        N632   1.346       .  A
N628        C629   1.355       .  A
C629        N630   1.372       .  A
N630        C631   1.368       .  A
C631        N632   1.359       .  A
C633        C818   1.459       .  S
C633        N634   1.338       .  A
C633        N638   1.339       .  A
N634        C635   1.351       .  A
C635        N636   1.376       .  A
N636        C637   1.379       .  A
C637        N638   1.362       .  A
C639       C1078   1.474       .  S
C639        N640   1.357       .  A
C639        N644   1.357   1_545  A
N640        C641   1.354       .  A
C641        N642   1.369   1_545  A
N642        C643   1.366       .  A
C643        N644   1.356       .  A
C645       C1038   1.467       .  S
C645        N646   1.341       .  A
C645        N650   1.352       .  A
N646        C647   1.340       .  A
C647        N648   1.375       .  A
N648        C649   1.371       .  A
C649        N650   1.361       .  A
C651        C738   1.458       .  S
C651        N652   1.366       .  A
C651        N656   1.346       .  A
N652        C653   1.365       .  A
C653        N654   1.371       .  A
N654        C655   1.369       .  A
C655        N656   1.335       .  A
C657       C1158   1.477       .  S
C657        N658   1.345       .  A
C657        N662   1.355       .  A
N658        C659   1.345       .  A
C659        N660   1.367       .  A
N660        C661   1.374       .  A
C661        N662   1.365       .  A
C663       C1058   1.452       .  S
C663        N664   1.348       .  A
C663        N668   1.353       .  A
N664        C665   1.347       .  A
C665        N666   1.374       .  A
N666        C667   1.374       .  A
C667        N668   1.356       .  A
C669       C1018   1.471       .  S
C669        N670   1.343       .  A
C669        N674   1.371   1_545  A
N670        C671   1.337       .  A
C671        N672   1.351       .  A
N672        C673   1.359   1_545  A
C673        N674   1.370       .  A
C675       C1138   1.477       .  S
C675        N676   1.356       .  A
C675        N680   1.360       .  A
N676        C677   1.353       .  A
C677        N678   1.360       .  A
N678        C679   1.361       .  A
C679        N680   1.361       .  A
C681        C938   1.466       .  S
C681        N682   1.351       .  A
C681        N686   1.362       .  A
N682        C683   1.346       .  A
C683        N684   1.364       .  A
N684        C685   1.370       .  A
C685        N686   1.359       .  A
C687        C889   1.463       .  S
C687        N688   1.350       .  A
C687        N692   1.354       .  A
N688        C689   1.359       .  A
C689        N690   1.379       .  A
N690        C691   1.373       .  A
C691        N692   1.350       .  A
C693        C858   1.457       .  S
C693        N694   1.357   1_545  A
C693        N698   1.356   1_545  A
N694        C695   1.352       .  A
C695        N696   1.371       .  A
N696        C697   1.379       .  A
C697        N698   1.356       .  A
C699        C878   1.479   1_655  S
C699        N700   1.357   1_565  A
C699        N704   1.368       .  A
N700        C701   1.347       .  A
C701        N702   1.355       .  A
N702        C703   1.358   1_545  A
C703        N704   1.362       .  A
C705        C706   1.406       .  A
C705        C710   1.402       .  A
C705        H715   1.083       .  S
C706        C711   1.486       .  S
C706        C707   1.404       .  A
C707        C708   1.396       .  A
C707        H712   1.083       .  S
C708        C709   1.408       .  A
C708        H713   1.083       .  S
C709        C710   1.407       .  A
C710        H714   1.083       .  S
C711        C716   1.406       .  A
C711        C720   1.407       .  A
C716        C717   1.399       .  A
C716        H721   1.083       .  S
C717        C718   1.404       .  A
C717        H722   1.083       .  S
C718        C719   1.404       .  A
C719        C720   1.400       .  A
C719        H723   1.083       .  S
C720        H724   1.082       .  S
C725        C726   1.405       .  A
C725        C730   1.395       .  A
C725        H735   1.083       .  S
C726        C731   1.478       .  S
C726        C727   1.405       .  A
C727        C728   1.390       .  A
C727        H732   1.082       .  S
C728        C729   1.401       .  A
C728        H733   1.084       .  S
C729        C730   1.405       .  A
C730        H734   1.083       .  S
C731        C736   1.401       .  A
C731        C740   1.412       .  A
C736        C737   1.389       .  A
C736        H741   1.083       .  S
C737        C738   1.406       .  A
C737        H742   1.084       .  S
C738        C739   1.396       .  A
C739        C740   1.394       .  A
C739        H743   1.083       .  S
C740        H744   1.082       .  S
C745        C746   1.398   1_655  A
C745        C750   1.395       .  A
C745        H755   1.083       .  S
C746        C751   1.475       .  S
C746        C747   1.409   1_455  A
C747        C748   1.395       .  A
C747        H752   1.083   1_655  S
C748        C749   1.397       .  A
C748        H753   1.077       .  S
C749        C750   1.412       .  A
C750        H754   1.083       .  S
C751        C756   1.409       .  A
C751        C760   1.399       .  A
C756        C757   1.399       .  A
C756        H761   1.083   1_455  S
C757        C758   1.401       .  A
C757        H762   1.084   1_455  S
C758        C759   1.403       .  A
C759        C760   1.395       .  A
C759        H763   1.083       .  S
C760        H764   1.076       .  S
C765        C766   1.410       .  A
C765        C770   1.407       .  A
C765        H775   1.083       .  S
C766        C771   1.495       .  S
C766        C767   1.405       .  A
C767        C768   1.399       .  A
C767        H772   1.083       .  S
C768        C769   1.408       .  A
C768        H773   1.083       .  S
C769        C770   1.407       .  A
C770        H774   1.083       .  S
C771        C776   1.406       .  A
C771        C780   1.409       .  A
C776        C777   1.403       .  A
C776        H781   1.083       .  S
C777        C778   1.409       .  A
C777        H782   1.083       .  S
C778        C779   1.406       .  A
C779        C780   1.403       .  A
C779        H783   1.083       .  S
C780        H784   1.083       .  S
C785        C786   1.409       .  A
C785        C790   1.408       .  A
C785        H795   1.083       .  S
C786        C791   1.480       .  S
C786        C787   1.400       .  A
C787        C788   1.381       .  A
C787        H792   1.083       .  S
C788        C789   1.402       .  A
C788        H793   1.078       .  S
C789        C790   1.408       .  A
C790        H794   1.083       .  S
C791        C796   1.403       .  A
C791        C800   1.407       .  A
C796        C797   1.398       .  A
C796        H801   1.083       .  S
C797        C798   1.407       .  A
C797        H802   1.083   1_565  S
C798        C799   1.404       .  A
C799        C800   1.395       .  A
C799        H803   1.083       .  S
C800        H804   1.084       .  S
C805        C806   1.392       .  A
C805        C810   1.387       .  A
C805        H815   1.084       .  S
C806        C811   1.472       .  S
C806        C807   1.414       .  A
C807        C808   1.399       .  A
C807        H812   1.084       .  S
C808        C809   1.399       .  A
C808        H813   1.083       .  S
C809        C810   1.412       .  A
C810        H814   1.082       .  S
C811        C816   1.392       .  A
C811        C820   1.410       .  A
C816        C817   1.396       .  A
C816        H821   1.076       .  S
C817        C818   1.406       .  A
C817        H822   1.083       .  S
C818        C819   1.395       .  A
C819        C820   1.394       .  A
C819        H823   1.083       .  S
C820        H824   1.083       .  S
C825        C826   1.402       .  A
C825        C830   1.389       .  A
C825        H835   1.084       .  S
C826        C831   1.467       .  S
C826        C827   1.403       .  A
C827        C828   1.398       .  A
C827        H832   1.083       .  S
C828        C829   1.405       .  A
C828        H833   1.083       .  S
C829        C830   1.400       .  A
C830        H834   1.084       .  S
C831        C836   1.400       .  A
C831        C840   1.404       .  A
C836        C837   1.390   1_556  A
C836        H841   1.084       .  S
C837        C838   1.406       .  A
C837        H842   1.082       .  S
C838        C839   1.402   1_554  A
C839        C840   1.395       .  A
C839        H843   1.083       .  S
C840        H844   1.083       .  S
C845        C846   1.402       .  A
C845        C850   1.392       .  A
C845        H855   1.084       .  S
C846        C851   1.473       .  S
C846        C847   1.407       .  A
C847        C848   1.395       .  A
C847        H852   1.083       .  S
C848        C849   1.401       .  A
C848        H853   1.083       .  S
C849        C850   1.406       .  A
C850        H854   1.083   1_554  S
C851        C856   1.405       .  A
C851        C860   1.405       .  A
C856        C857   1.398       .  A
C856        H861   1.083       .  S
C857        C858   1.402       .  A
C857        H862   1.084       .  S
C858        C859   1.398       .  A
C859        C860   1.390       .  A
C859        H863   1.084       .  S
C860        H864   1.083   1_554  S
C865        C866   1.407   1_545  A
C865        C870   1.394       .  A
C865        H875   1.082       .  S
C866        C871   1.484       .  S
C866        C867   1.407       .  A
C867        C868   1.398       .  A
C867        H872   1.083       .  S
C868        C869   1.402       .  A
C868        H873   1.083       .  S
C869        C870   1.401   1_565  A
C870        H874   1.083       .  S
C871        C876   1.408       .  A
C871        C880   1.403   1_565  A
C876        C877   1.399       .  A
C876        H881   1.082       .  S
C877        C878   1.403       .  A
C877        H882   1.083       .  S
C878        C879   1.408   1_565  A
C879        C880   1.391       .  A
C879        H883   1.083   1_455  S
C880        H884   1.083       .  S
C885        C886   1.409       .  A
C885        C890   1.397   1_455  A
C885        H895   1.084       .  S
C886        C891   1.474       .  S
C886        C887   1.402   1_554  A
C887        C888   1.397       .  A
C887        H892   1.083       .  S
C888        C889   1.407   1_456  A
C888        H893   1.084   1_455  S
C889        C890   1.398       .  A
C890        H894   1.083       .  S
C891        C896   1.409       .  A
C891        C900   1.394       .  A
C896        C897   1.396       .  A
C896        H901   1.076       .  S
C897        C898   1.396       .  A
C897        H902   1.083       .  S
C898        C899   1.419       .  A
C899        C900   1.394       .  A
C899        H903   1.083       .  S
C900        H904   1.083       .  S
C905        C906   1.398       .  A
C905        C910   1.388       .  A
C905        H915   1.076       .  S
C906        C911   1.468       .  S
C906        C907   1.407       .  A
C907        C908   1.392       .  A
C907        H912   1.083       .  S
C908        C909   1.400       .  A
C908        H913   1.083       .  S
C909        C910   1.404       .  A
C910        H914   1.083       .  S
C911        C916   1.401       .  A
C911        C920   1.410       .  A
C916        C917   1.392       .  A
C916        H921   1.083       .  S
C917        C918   1.403       .  A
C917        H922   1.083       .  S
C918        C919   1.392       .  A
C919        C920   1.388       .  A
C919        H923   1.083       .  S
C920        H924   1.083       .  S
C925        C926   1.396       .  A
C925        C930   1.388   1_545  A
C925        H935   1.084       .  S
C926        C931   1.467       .  S
C926        C927   1.407       .  A
C927        C928   1.397       .  A
C927        H932   1.083       .  S
C928        C929   1.402   1_545  A
C928        H933   1.083       .  S
C929        C930   1.409       .  A
C930        H934   1.083       .  S
C931        C936   1.407       .  A
C931        C940   1.397       .  A
C936        C937   1.392       .  A
C936        H941   1.083       .  S
C937        C938   1.398       .  A
C937        H942   1.083       .  S
C938        C939   1.407       .  A
C939        C940   1.392       .  A
C939        H943   1.080       .  S
C940        H944   1.083       .  S
C945        C946   1.403       .  A
C945        C950   1.395       .  A
C945        H955   1.084       .  S
C946        C951   1.468       .  S
C946        C947   1.398       .  A
C947        C948   1.397       .  A
C947        H952   1.083       .  S
C948        C949   1.412       .  A
C948        H953   1.083       .  S
C949        C950   1.402       .  A
C950        H954   1.083       .  S
C951        C956   1.403   1_455  A
C951        C960   1.397       .  A
C956        C957   1.401       .  A
C956        H961   1.083       .  S
C957        C958   1.406       .  A
C957        H962   1.083       .  S
C958        C959   1.410   1_655  A
C959        C960   1.391       .  A
C959        H963   1.083       .  S
C960        H964   1.084       .  S
C965        C966   1.413   1_455  A
C965        C970   1.409       .  A
C965        H975   1.082       .  S
C966        C971   1.507       .  S
C966        C967   1.409       .  A
C967        C968   1.401       .  A
C967        H972   1.082       .  S
C968        C969   1.404   1_655  A
C968        H973   1.083       .  S
C969        C970   1.407       .  A
C970        H974   1.083       .  S
C971        C976   1.412       .  A
C971        C980   1.408   1_655  A
C976        C977   1.406       .  A
C976        H981   1.082       .  S
C977        C978   1.406       .  A
C977        H982   1.083       .  S
C978        C979   1.411       .  A
C979        C980   1.404   1_655  A
C979        H983   1.083   1_655  S
C980        H984   1.082       .  S
C985        C986   1.400       .  A
C985        C990   1.396       .  A
C985        H995   1.079       .  S
C986        C991   1.477       .  S
C986        C987   1.410       .  A
C987        C988   1.396       .  A
C987        H992   1.083       .  S
C988        C989   1.397   1_455  A
C988        H993   1.083   1_455  S
C989        C990   1.404   1_655  A
C990        H994   1.084       .  S
C991        C996   1.399       .  A
C991       C1000   1.414       .  A
C996        C997   1.394       .  A
C996       H1001   1.084       .  S
C997        C998   1.411       .  A
C997       H1002   1.083       .  S
C998        C999   1.396       .  A
C999       C1000   1.392       .  A
C999       H1003   1.083       .  S
C1000      H1004   1.083       .  S
C1005      C1006   1.405       .  A
C1005      C1010   1.402       .  A
C1005      H1015   1.083       .  S
C1006      C1011   1.487       .  S
C1006      C1007   1.410       .  A
C1007      C1008   1.402       .  A
C1007      H1012   1.083       .  S
C1008      C1009   1.401       .  A
C1008      H1013   1.083       .  S
C1009      C1010   1.410       .  A
C1010      H1014   1.084       .  S
C1011      C1016   1.399       .  A
C1011      C1020   1.411       .  A
C1016      C1017   1.398       .  A
C1016      H1021   1.083       .  S
C1017      C1018   1.416       .  A
C1017      H1022   1.083       .  S
C1018      C1019   1.387   1_545  A
C1019      C1020   1.391   1_565  A
C1019      H1023   1.082       .  S
C1020      H1024   1.078       .  S
C1025      C1026   1.406   1_554  A
C1025      C1030   1.389       .  A
C1025      H1035   1.083       .  S
C1026      C1031   1.468       .  S
C1026      C1027   1.402       .  A
C1027      C1028   1.393       .  A
C1027      H1032   1.083       .  S
C1028      C1029   1.403       .  A
C1028      H1033   1.083       .  S
C1029      C1030   1.398   1_556  A
C1030      H1034   1.084       .  S
C1031      C1036   1.411       .  A
C1031      C1040   1.396   1_556  A
C1036      C1037   1.394       .  A
C1036      H1041   1.083       .  S
C1037      C1038   1.398   1_556  A
C1037      H1042   1.083       .  S
C1038      C1039   1.411       .  A
C1039      C1040   1.386       .  A
C1039      H1043   1.083       .  S
C1040      H1044   1.084       .  S
C1045      C1046   1.405       .  A
C1045      C1050   1.391       .  A
C1045      H1055   1.083       .  S
C1046      C1051   1.473       .  S
C1046      C1047   1.403   1_554  A
C1047      C1048   1.393       .  A
C1047      H1052   1.083       .  S
C1048      C1049   1.404       .  A
C1048      H1053   1.084       .  S
C1049      C1050   1.401   1_556  A
C1050      H1054   1.083       .  S
C1051      C1056   1.408       .  A
C1051      C1060   1.403   1_554  A
C1056      C1057   1.389       .  A
C1056      H1061   1.083       .  S
C1057      C1058   1.396       .  A
C1057      H1062   1.084       .  S
C1058      C1059   1.404   1_554  A
C1059      C1060   1.395       .  A
C1059      H1063   1.084       .  S
C1060      H1064   1.083       .  S
C1065      C1066   1.408       .  A
C1065      C1070   1.401       .  A
C1065      H1075   1.083       .  S
C1066      C1071   1.479       .  S
C1066      C1067   1.402       .  A
C1067      C1068   1.391       .  A
C1067      H1072   1.083       .  S
C1068      C1069   1.404       .  A
C1068      H1073   1.083       .  S
C1069      C1070   1.403       .  A
C1070      H1074   1.083       .  S
C1071      C1076   1.404       .  A
C1071      C1080   1.405       .  A
C1076      C1077   1.396   1_545  A
C1076      H1081   1.083   1_545  S
C1077      C1078   1.405   1_565  A
C1077      H1082   1.083       .  S
C1078      C1079   1.404       .  A
C1079      C1080   1.395       .  A
C1079      H1083   1.083       .  S
C1080      H1084   1.083       .  S
C1085      C1086   1.399       .  A
C1085      C1090   1.396       .  A
C1085      H1095   1.083       .  S
C1086      C1091   1.478       .  S
C1086      C1087   1.410   1_565  A
C1087      C1088   1.398       .  A
C1087      H1092   1.079       .  S
C1088      C1089   1.398       .  A
C1088      H1093   1.083       .  S
C1089      C1090   1.415   1_545  A
C1090      H1094   1.084       .  S
C1091      C1096   1.412       .  A
C1091      C1100   1.401       .  A
C1096      C1097   1.399       .  A
C1096      H1101   1.084       .  S
C1097      C1098   1.399       .  A
C1097      H1102   1.083       .  S
C1098      C1099   1.410       .  A
C1099      C1100   1.400       .  A
C1099      H1103   1.084       .  S
C1100      H1104   1.083       .  S
C1105      C1106   1.413       .  A
C1105      C1110   1.394       .  A
C1105      H1115   1.084       .  S
C1106      C1111   1.474       .  S
C1106      C1107   1.400       .  A
C1107      C1108   1.396       .  A
C1107      H1112   1.083       .  S
C1108      C1109   1.407       .  A
C1108      H1113   1.084       .  S
C1109      C1110   1.395       .  A
C1110      H1114   1.083       .  S
C1111      C1116   1.398       .  A
C1111      C1120   1.412       .  A
C1116      C1117   1.395       .  A
C1116      H1121   1.083       .  S
C1117      C1118   1.414       .  A
C1117      H1122   1.083       .  S
C1118      C1119   1.401       .  A
C1119      C1120   1.398       .  A
C1119      H1123   1.083       .  S
C1120      H1124   1.084       .  S
C1125      C1126   1.406       .  A
C1125      C1130   1.397       .  A
C1125      H1135   1.082       .  S
C1126      C1131   1.487       .  S
C1126      C1127   1.406       .  A
C1127      C1128   1.399       .  A
C1127      H1132   1.083       .  S
C1128      C1129   1.409       .  A
C1128      H1133   1.083       .  S
C1129      C1130   1.404       .  A
C1130      H1134   1.083       .  S
C1131      C1136   1.408       .  A
C1131      C1140   1.406       .  A
C1136      C1137   1.400       .  A
C1136      H1141   1.083       .  S
C1137      C1138   1.404       .  A
C1137      H1142   1.083       .  S
C1138      C1139   1.404       .  A
C1139      C1140   1.395       .  A
C1139      H1143   1.083       .  S
C1140      H1144   1.083       .  S
C1145      C1146   1.415       .  A
C1145      C1150   1.398       .  A
C1145      H1155   1.083       .  S
C1146      C1151   1.472       .  S
C1146      C1147   1.394       .  A
C1147      C1148   1.393       .  A
C1147      H1152   1.083       .  S
C1148      C1149   1.416       .  A
C1148      H1153   1.084       .  S
C1149      C1150   1.396       .  A
C1150      H1154   1.083       .  S
C1151      C1156   1.412       .  A
C1151      C1160   1.398       .  A
C1156      C1157   1.398       .  A
C1156      H1161   1.084       .  S
C1157      C1158   1.400       .  A
C1157      H1162   1.083       .  S
C1158      C1159   1.411       .  A
C1159      C1160   1.395       .  A
C1159      H1163   1.084       .  S
C1160      H1164   1.083       .  S
C1165      C1166   1.410       .  A
C1165      C1170   1.400       .  A
C1165      H1175   1.082       .  S
C1166      C1171   1.486       .  S
C1166      C1167   1.404   1_554  A
C1167      C1168   1.393       .  A
C1167      H1172   1.083       .  S
C1168      C1169   1.405       .  A
C1168      H1173   1.083       .  S
C1169      C1170   1.402   1_556  A
C1170      H1174   1.083       .  S
C1171      C1176   1.408       .  A
C1171      C1180   1.407   1_554  A
C1176      C1177   1.401       .  A
C1176      H1181   1.083       .  S
C1177      C1178   1.402       .  A
C1177      H1182   1.083       .  S
C1178      C1179   1.400       .  A
C1179      C1180   1.390   1_554  A
C1179      H1183   1.084   1_554  S
C1180      H1184   1.082       .  S
