geometry optimzed in LAMMPS
_audit_creation_date              2020-11-30 
_audit_creation_method            'lammps2cif' 
_symmetry_space_group_name_H-M    'P1' 
_symmetry_Int_Tables_number       1 
_symmetry_cell_setting            triclinic 
loop_ 
_symmetry_equiv_pos_as_xyz 
  x,y,z 
_cell_length_a                    27.73790256 
_cell_length_b                    27.72186390542666 
_cell_length_c                    85.11517314961968 
_cell_angle_alpha                 89.95411393034034 
_cell_angle_beta                  89.97132698456343 
_cell_angle_gamma                 90.2105985920341 
loop_ 
_atom_site_label 
_atom_site_type_symbol 
_atom_site_fract_x 
_atom_site_fract_y 
_atom_site_fract_z 
_atom_site_charge 
N1          N  0.75135793  0.74192630  0.72396189    -0.36100
N2          N  0.78195324  0.66921103  0.74682939    -0.56600
N3          N  0.79202410  0.74523462  0.77017269    -0.36100
N4          N  0.76531981  0.81801709  0.74678770    -0.56600
C5          C  0.75927902  0.70334926  0.71459910     0.27500
C6          C  0.74959694  0.78136272  0.71458712     0.27500
C7          C  0.80772544  0.70726484  0.77877660     0.27500
C8          C  0.80078304  0.78585231  0.77853074     0.27500
C9          C  0.76455090  0.64032188  0.73533799     0.36100
C10         C  0.78669853  0.64138497  0.75980992     0.36100
C11         C  0.74524837  0.84457776  0.73520643     0.36100
C12         C  0.76843102  0.84696711  0.75949908     0.36100
C13         C  0.76306276  0.71856994  0.69910766    -0.21300
C14         C  0.75652070  0.76774191  0.69908952    -0.21300
C15         C  0.82540666  0.72414784  0.79302192    -0.21300
C16         C  0.82147937  0.77347579  0.79279700    -0.21300
C17         C  0.75804304  0.59395831  0.74106645    -0.22400
C18         C  0.77340644  0.59426860  0.75635756    -0.22400
C19         C  0.73594744  0.89084215  0.74052046    -0.22400
C20         C  0.75096893  0.89247138  0.75588020    -0.22400
C21         C  0.75797553  0.65445257  0.71947702    -0.17800
C22         C  0.73908437  0.82884468  0.71955749    -0.17800
C23         C  0.78834690  0.83366119  0.77417282    -0.17700
C24         C  0.80373786  0.65766745  0.77462866    -0.17700
H25         H  0.76877974  0.69635849  0.68882639     0.15200
H26         H  0.75649900  0.79078042  0.68881791     0.15200
H27         H  0.83898485  0.70332861  0.80279951     0.15200
H28         H  0.83167489  0.79735556  0.80229364     0.15200
H29         H  0.74467607  0.56268122  0.73482639     0.13400
H30         H  0.77416496  0.56305439  0.76396149     0.13400
H31         H  0.72095280  0.92061992  0.73392483     0.13400
H32         H  0.74928096  0.92366761  0.76349381     0.13400
H33         H  0.74093839  0.74050040  0.73570752     0.26700
H34         H  0.77276787  0.74329951  0.75976454     0.26700
N35         N  0.22321217  0.74376483  0.77384392    -0.36100
N36         N  0.24745633  0.67002535  0.75080678    -0.56600
N37         N  0.27908533  0.74539065  0.72916835    -0.36100
N38         N  0.24967200  0.81902849  0.75161271    -0.56600
C39         C  0.20345701  0.70430858  0.78070837     0.27500
C40         C  0.20518973  0.78299453  0.78123643     0.27500
C41         C  0.28084865  0.70634017  0.71963902     0.27500
C42         C  0.28048795  0.78512139  0.71990065     0.27500
C43         C  0.23892266  0.64125651  0.76335201     0.36100
C44         C  0.26925850  0.64219431  0.73988776     0.36100
C45         C  0.24257078  0.84674086  0.76446519     0.36100
C46         C  0.27071566  0.84769685  0.74071316     0.36100
C47         C  0.17273774  0.71863533  0.79267739    -0.21300
C48         C  0.17381890  0.76827224  0.79300664    -0.21300
C49         C  0.28400384  0.72142861  0.70413275    -0.21300
C50         C  0.28371529  0.77109924  0.70429390    -0.21300
C51         C  0.25474244  0.59482381  0.76029964    -0.22400
C52         C  0.27393804  0.59541457  0.74543418    -0.22400
C53         C  0.25892078  0.89329409  0.76167023    -0.22400
C54         C  0.27654597  0.89394504  0.74659888    -0.22400
C55         C  0.21517606  0.65574376  0.77727002    -0.17800
C56         C  0.21852848  0.83155716  0.77828635    -0.17800
C57         C  0.28175173  0.83362562  0.72516804    -0.17700
C58         C  0.28212755  0.65752820  0.72459089    -0.17700
H59         H  0.15218076  0.69566483  0.80051230     0.15200
H60         H  0.15419653  0.79093429  0.80112763     0.15200
H61         H  0.28649936  0.69897473  0.69376848     0.15200
H62         H  0.28606888  0.79425121  0.69407322     0.15200
H63         H  0.25251317  0.56369010  0.76795021     0.13400
H64         H  0.28922847  0.56479020  0.73935387     0.13400
H65         H  0.25766937  0.92381805  0.76957822     0.13400
H66         H  0.29151615  0.92503233  0.74060848     0.13400
H67         H  0.25174930  0.74374946  0.76594349     0.26700
H68         H  0.28221910  0.74491637  0.74132233     0.26700
N69         N  0.01290802  0.52595643  0.47808881    -0.36100
N70         N  0.08565662  0.50772240  0.50195454    -0.56600
N71         N  0.01048948  0.47499306  0.52317690    -0.36100
N72         N  0.93795344  0.49698591  0.49983240    -0.56600
C73         C  0.05169171  0.54827377  0.47169178     0.27500
C74         C  0.97323796  0.54245759  0.47055695     0.27500
C75         C  0.04844863  0.48024622  0.53299711     0.27500
C76         C  0.96996993  0.47685499  0.53201952     0.27500
C77         C  0.11435463  0.51398828  0.48928068     0.36100
C78         C  0.11291288  0.48596086  0.51303208     0.36100
C79         C  0.91228713  0.49838931  0.48635450     0.36100
C80         C  0.91133106  0.47150697  0.51025404     0.36100
C81         C  0.03653119  0.57926472  0.45989475    -0.21300
C82         C  0.98697110  0.57570057  0.45921147    -0.21300
C83         C  0.03207825  0.48581563  0.54826258    -0.21300
C84         C  0.98242107  0.48454471  0.54761817    -0.21300
C85         C  0.16012836  0.49637239  0.49235277    -0.22400
C86         C  0.15919447  0.47856113  0.50742522    -0.22400
C87         C  0.86925409  0.47348367  0.48815416    -0.22400
C88         C  0.86884895  0.45599796  0.50325844    -0.22400
C89         C  0.10045557  0.53826281  0.47539430    -0.17800
C90         C  0.92558375  0.52533554  0.47294033    -0.17800
C91         C  0.92279770  0.46715785  0.52640229    -0.17700
C92         C  0.09733110  0.47656019  0.52853225    -0.17700
H93         H  0.05892564  0.60157987  0.45240016     0.15200
H94         H  0.96379734  0.59465301  0.45107278     0.15200
H95         H  0.05369896  0.49006986  0.55875697     0.15200
H96         H  0.95832507  0.48732262  0.55757652     0.15200
H97         H  0.19109622  0.49681643  0.48461350     0.13400
H98         H  0.18930643  0.46276418  0.51363380     0.13400
H99         H  0.84094261  0.46883015  0.47953448     0.13400
H100        H  0.84004780  0.43519587  0.50856982     0.13400
H101        H  0.01400057  0.49683995  0.48578778     0.26700
H102        H  0.01248270  0.46445049  0.51145251     0.26700
C103        C  0.65708616  0.41339408  0.63639455     0.03700
C104        C  0.67883892  0.42446221  0.62194183    -0.12500
C105        C  0.66765415  0.39889235  0.60824796     0.01200
C106        C  0.63304814  0.36191866  0.60896192    -0.11000
C107        C  0.61067432  0.34986354  0.62330769     0.03700
C108        C  0.62376667  0.37509186  0.63704489    -0.10400
H109        H  0.70594892  0.45259571  0.62139795     0.09300
H110        H  0.62421315  0.34208446  0.59837860     0.06800
H111        H  0.60830518  0.36469320  0.64822469     0.06600
C112        C  0.33541170  0.39327907  0.61369519     0.03700
C113        C  0.33218072  0.42398379  0.62672991    -0.12500
C114        C  0.36338055  0.41878011  0.63957520     0.01200
C115        C  0.39774299  0.38152864  0.63945045    -0.11000
C116        C  0.40234035  0.35105086  0.62625621     0.03700
C117        C  0.37127336  0.35771272  0.61335143    -0.10400
H118        H  0.30502076  0.45200773  0.62691050     0.09300
H119        H  0.42153391  0.37713860  0.64943885     0.06800
H120        H  0.37394043  0.33432094  0.60319540     0.06600
N121        N  0.00995078  0.02024677  0.52196545    -0.36100
N122        N  0.08497894  0.99650857  0.49914788    -0.56600
N123        N  0.01167226  0.97304086  0.47654915    -0.36100
N124        N  0.93645330  0.00009304  0.49888100    -0.56600
C125        C  0.04956151  0.03736832  0.52940653     0.27500
C126        C  0.97081794  0.03881914  0.52929320     0.27500
C127        C  0.05113978  0.97743862  0.46727689     0.27500
C128        C  0.97262780  0.97805230  0.46721439     0.27500
C129        C  0.11171856  0.99903761  0.51238608     0.36100
C130        C  0.11229196  0.97390842  0.48824438     0.36100
C131        C  0.90810061  0.00437621  0.51171418     0.36100
C132        C  0.90933175  0.97852216  0.48772719     0.36100
C133        C  0.03542625  0.06703637  0.54168723    -0.21300
C134        C  0.98573808  0.06797568  0.54160295    -0.21300
C135        C  0.03688833  0.98655261  0.45193781    -0.21300
C136        C  0.98722605  0.98618682  0.45186328    -0.21300
C137        C  0.15634191  0.97802649  0.50990505    -0.22400
C138        C  0.15647924  0.96153123  0.49467347    -0.22400
C139        C  0.86256231  0.98590305  0.50864678    -0.22400
C140        C  0.86341215  0.96927247  0.49343991    -0.22400
C141        C  0.09773423  0.02352447  0.52621644    -0.17800
C142        C  0.92215058  0.02727819  0.52582403    -0.17800
C143        C  0.92441153  0.97138065  0.47206919    -0.17700
C144        C  0.09914977  0.96905270  0.47222297    -0.17700
H145        H  0.05846423  0.08536027  0.55004661     0.15200
H146        H  0.96315698  0.08726484  0.54983363     0.15200
H147        H  0.05985343  0.99140672  0.44177233     0.15200
H148        H  0.96441810  0.99089502  0.44166532     0.15200
H149        H  0.18588044  0.97524481  0.51815483     0.13400
H150        H  0.18614236  0.94344052  0.48892804     0.13400
H151        H  0.83186635  0.98487652  0.51649686     0.13400
H152        H  0.83339993  0.95321713  0.48719834     0.13400
H153        H  0.00965936  0.99288775  0.51363179     0.26700
H154        H  0.01111879  0.96087904  0.48812963     0.26700
C155        C  0.35964531  0.07146866  0.63924891     0.03700
C156        C  0.39454307  0.10839006  0.63906386    -0.12500
C157        C  0.40090870  0.13750078  0.62563099     0.01200
C158        C  0.37168261  0.12928176  0.61235781    -0.11000
C159        C  0.33610904  0.09317145  0.61255143     0.03700
C160        C  0.33097617  0.06392484  0.62589485    -0.10400
H161        H  0.41729386  0.11372559  0.64926364     0.09300
H162        H  0.37562893  0.15173085  0.60200427     0.06800
H163        H  0.30390016  0.03561385  0.62597217     0.06600
C164        C  0.66919049  0.08915752  0.60879572     0.03700
C165        C  0.67287593  0.05774948  0.62165886    -0.12500
C166        C  0.64486348  0.06474838  0.63517829     0.01200
C167        C  0.61315469  0.10402457  0.63588810    -0.11000
C168        C  0.60810687  0.13542536  0.62297298     0.03700
C169        C  0.63660069  0.12786040  0.60947084    -0.10400
H170        H  0.69842760  0.02826329  0.62128033     0.09300
H171        H  0.59158497  0.10928252  0.64636308     0.06800
H172        H  0.63376361  0.15214752  0.59953558     0.06600
N173        N  0.49283923  0.47515262  0.97890785    -0.36100
N174        N  0.41495044  0.50320863  0.99994579    -0.56600
N175        N  0.48572044  0.53236261  0.02320123    -0.36100
N176        N  0.56348371  0.50926846  0.00164755    -0.56600
C177        C  0.45456131  0.47185237  0.96910147     0.27500
C178        C  0.53312401  0.47585667  0.96991676     0.27500
C179        C  0.44516390  0.55049710  0.02969791     0.27500
C180        C  0.52359091  0.55235348  0.03081592     0.27500
C181        C  0.38910918  0.47907737  0.98901492     0.36100
C182        C  0.38530879  0.50982152  0.01235930     0.36100
C183        C  0.59347320  0.48822340  0.99120673     0.36100
C184        C  0.58958101  0.51672934  0.01483110     0.36100
C185        C  0.47072834  0.46984078  0.95369492    -0.21300
C186        C  0.52029335  0.47243316  0.95420729    -0.21300
C187        C  0.45744006  0.58242280  0.04160567    -0.21300
C188        C  0.50699023  0.58346412  0.04234387    -0.21300
C189        C  0.34266776  0.47078988  0.99442861    -0.22400
C190        C  0.34031248  0.49011157  0.00925884    -0.22400
C191        C  0.63894781  0.48287501  0.99770683    -0.22400
C192        C  0.63646410  0.50088664  0.01269581    -0.22400
C193        C  0.40565079  0.46800923  0.97374056    -0.17800
C194        C  0.58117338  0.47649603  0.97556288    -0.17800
C195        C  0.57248902  0.54028125  0.02843050    -0.17700
C196        C  0.39753858  0.53587551  0.02606544    -0.17700
H197        H  0.44908621  0.46648502  0.94317164     0.15200
H198        H  0.54418703  0.47143826  0.94415448     0.15200
H199        H  0.43319423  0.60217099  0.04919248     0.15200
H200        H  0.52835016  0.60415126  0.05059529     0.15200
H201        H  0.31339858  0.45314994  0.98826279     0.13400
H202        H  0.30889086  0.49020757  0.01680244     0.13400
H203        H  0.67067771  0.46784540  0.99218860     0.13400
H204        H  0.66592248  0.50252741  0.02101538     0.13400
H205        H  0.49174243  0.47158453  0.99104090     0.26700
H206        H  0.48743896  0.50335765  0.01552868     0.26700
C207        C  0.85452101  0.42971400  0.86677527     0.03700
C208        C  0.83339493  0.43931612  0.88147526    -0.12500
C209        C  0.83215811  0.40433123  0.89342368     0.01200
C210        C  0.85950582  0.36219830  0.89165100    -0.11000
C211        C  0.88596878  0.35422219  0.87780817     0.03700
C212        C  0.88072798  0.38642339  0.86514209    -0.10400
H213        H  0.81678556  0.47378447  0.88373259     0.09300
H214        H  0.85968407  0.33535018  0.90089915     0.06800
H215        H  0.89812137  0.37789548  0.85412544     0.06600
C216        C  0.16399079  0.39073655  0.88901372     0.03700
C217        C  0.17049534  0.42007526  0.87574050    -0.12500
C218        C  0.13922468  0.41648953  0.86286382     0.01200
C219        C  0.10177684  0.38239717  0.86313259    -0.11000
C220        C  0.09459114  0.35261045  0.87633085     0.03700
C221        C  0.12546443  0.35763428  0.88939391    -0.10400
H222        H  0.19983709  0.44601607  0.87547776     0.09300
H223        H  0.07835288  0.37911183  0.85299904     0.06800
H224        H  0.12065862  0.33481416  0.89962123     0.06600
N225        N  0.73006991  0.25216669  0.27200643    -0.36100
N226        N  0.74467212  0.17972994  0.24800129    -0.56600
N227        N  0.75642800  0.25512361  0.22473435    -0.36100
N228        N  0.74537683  0.32778716  0.24916288    -0.56600
C229        C  0.73446188  0.21208806  0.28094319     0.27500
C230        C  0.73573264  0.29068872  0.28158575     0.27500
C231        C  0.77395790  0.21668242  0.21682405     0.27500
C232        C  0.77248596  0.29515074  0.21728746     0.27500
C233        C  0.72853403  0.15096474  0.25967785     0.36100
C234        C  0.74472191  0.15261995  0.23484584     0.36100
C235        C  0.72875954  0.35449800  0.26126254     0.36100
C236        C  0.74265536  0.35598178  0.23625778     0.36100
C237        C  0.74280232  0.22520738  0.29642691    -0.21300
C238        C  0.74400318  0.27482762  0.29681277    -0.21300
C239        C  0.80099438  0.23247381  0.20409645    -0.21300
C240        C  0.80001035  0.28206907  0.20437619    -0.21300
C241        C  0.71836891  0.10525492  0.25393176    -0.22400
C242        C  0.72865908  0.10632074  0.23815085    -0.22400
C243        C  0.71519527  0.39980619  0.25598387    -0.22400
C244        C  0.72446696  0.40088290  0.24013653    -0.22400
C245        C  0.72728906  0.16427883  0.27565288    -0.17800
C246        C  0.72917378  0.33949589  0.27713999    -0.17800
C247        C  0.76053121  0.34302283  0.22135486    -0.17700
C248        C  0.76409660  0.16781953  0.22035234    -0.17700
H249        H  0.74691759  0.20154806  0.30645313     0.15200
H250        H  0.74924239  0.29671280  0.30720111     0.15200
H251        H  0.81928850  0.21055462  0.19544447     0.15200
H252        H  0.81735663  0.30578423  0.19597436     0.15200
H253        H  0.70607550  0.07408260  0.26048904     0.13400
H254        H  0.72586232  0.07620399  0.23011286     0.13400
H255        H  0.70100826  0.42932635  0.26286928     0.13400
H256        H  0.71894607  0.43132488  0.23238059     0.13400
H257        H  0.71750083  0.25311984  0.26051518     0.26700
H258        H  0.73079380  0.25421575  0.23365036     0.26700
N259        N  0.49068039  0.97330531  0.02208319    -0.36100
N260        N  0.56444838  0.99210413  0.99846375    -0.56600
N261        N  0.48972563  0.01810410  0.97610873    -0.36100
N262        N  0.41610171  0.00442562  0.00019399    -0.56600
C263        C  0.53083393  0.97099140  0.03109163     0.27500
C264        C  0.45240064  0.97616548  0.03190723     0.27500
C265        C  0.52951881  0.03218030  0.96807375     0.27500
C266        C  0.45122874  0.03842973  0.96896630     0.27500
C267        C  0.59270537  0.97289545  0.00975602     0.36100
C268        C  0.59211633  0.99600706  0.98545362     0.36100
C269        C  0.38757298  0.98788472  0.01192836     0.36100
C270        C  0.38704256  0.01199476  0.98767537     0.36100
C271        C  0.51778096  0.97155363  0.04683048    -0.21300
C272        C  0.46835512  0.97484223  0.04734098    -0.21300
C273        C  0.51606486  0.06126617  0.95557039    -0.21300
C274        C  0.46672562  0.06523712  0.95613790    -0.21300
C275        C  0.63866481  0.96488191  0.00392618    -0.22400
C276        C  0.63825442  0.97941747  0.98850899    -0.22400
C277        C  0.34008850  0.98555764  0.00689827    -0.22400
C278        C  0.33976294  0.00081458  0.99153429    -0.22400
C279        C  0.57874718  0.96592730  0.02556148    -0.17800
C280        C  0.40328221  0.97729376  0.02737043    -0.17800
C281        C  0.40223118  0.03098364  0.97304150    -0.17700
C282        C  0.57747452  0.01779425  0.97123751    -0.17700
H283        H  0.54135147  0.96940682  0.05693529     0.15200
H284        H  0.44661299  0.97578992  0.05789907     0.15200
H285        H  0.53934703  0.07770142  0.94685644     0.15200
H286        H  0.44471326  0.08526629  0.94792788     0.15200
H287        H  0.66948699  0.95073477  0.01018915     0.13400
H288        H  0.66868773  0.97869681  0.98054817     0.13400
H289        H  0.30888182  0.97427690  0.01362012     0.13400
H290        H  0.30828247  0.00357349  0.98408432     0.13400
H291        H  0.48905798  0.96792392  0.01004946     0.26700
H292        H  0.48838301  0.99185097  0.98477858     0.26700
C293        C  0.14655148  0.08594394  0.85964685     0.03700
C294        C  0.10730840  0.11794963  0.85999679    -0.12500
C295        C  0.09939782  0.14758693  0.87317972     0.01200
C296        C  0.13142731  0.14498118  0.88597387    -0.11000
C297        C  0.17007539  0.11239068  0.88595145     0.03700
C298        C  0.17752586  0.08333907  0.87266138    -0.10400
H299        H  0.08285607  0.11940093  0.85008424     0.09300
H300        H  0.12653046  0.16867811  0.89595831     0.06800
H301        H  0.20687795  0.05762417  0.87258911     0.06600
C302        C  0.81740104  0.09782475  0.88639043     0.03700
C303        C  0.85267584  0.13422895  0.88680259    -0.12500
C304        C  0.88377096  0.14134575  0.87391053     0.01200
C305        C  0.87914249  0.11142973  0.86063859    -0.11000
C306        C  0.84495918  0.07398783  0.86041209     0.03700
C307        C  0.81372739  0.06797140  0.87321057    -0.10400
H308        H  0.85574749  0.15690061  0.89712241     0.09300
H309        H  0.90325466  0.11601839  0.85072171     0.06800
H310        H  0.78670306  0.03961198  0.87297943     0.06600
N311        N  0.21368630  0.25698117  0.22854617    -0.36100
N312        N  0.23899463  0.33144377  0.25109238    -0.56600
N313        N  0.26454664  0.25684981  0.27334636    -0.36100
N314        N  0.23631172  0.18261651  0.25121448    -0.56600
C315        C  0.19715175  0.29676322  0.22114317     0.27500
C316        C  0.19299023  0.21831617  0.22154692     0.27500
C317        C  0.26118307  0.29601070  0.28278306     0.27500
C318        C  0.26293139  0.21735688  0.28268793     0.27500
C319        C  0.23649345  0.35864197  0.23794948     0.36100
C320        C  0.26132255  0.35869505  0.26207072     0.36100
C321        C  0.22772966  0.15434754  0.23859955     0.36100
C322        C  0.25777387  0.15438944  0.26206768     0.36100
C323        C  0.16567716  0.28330291  0.20926217    -0.21300
C324        C  0.16311773  0.23376609  0.20949669    -0.21300
C325        C  0.25634074  0.28113764  0.29826433    -0.21300
C326        C  0.25844470  0.23156917  0.29823874    -0.21300
C327        C  0.25709880  0.40351935  0.24057249    -0.22400
C328        C  0.27309080  0.40348118  0.25585338    -0.22400
C329        C  0.24302975  0.10767161  0.24153448    -0.22400
C330        C  0.26220751  0.10771093  0.25641083    -0.22400
C331        C  0.21286302  0.34450467  0.22400216    -0.17800
C332        C  0.20343779  0.16949602  0.22489973    -0.17800
C333        C  0.26890550  0.16924495  0.27751577    -0.17700
C334        C  0.26779245  0.34448358  0.27789759    -0.17700
H335        H  0.14722364  0.30669666  0.20106356     0.15200
H336        H  0.14232208  0.21165310  0.20149252     0.15200
H337        H  0.25354324  0.30372036  0.30858829     0.15200
H338        H  0.25724003  0.20887513  0.30856697     0.15200
H339        H  0.25999658  0.43325085  0.23237073     0.13400
H340        H  0.29095151  0.43318673  0.26171889     0.13400
H341        H  0.24004291  0.07668632  0.23386305     0.13400
H342        H  0.27654250  0.07662978  0.26249951     0.13400
H343        H  0.24206897  0.25617403  0.23649684     0.26700
H344        H  0.27415726  0.25705658  0.26152615     0.26700
C345        C  0.12876218  0.93544422  0.13839917     0.03700
C346        C  0.09724996  0.89570746  0.13829200    -0.12500
C347        C  0.09446514  0.86518949  0.12507616     0.01200
C348        C  0.12464037  0.87449700  0.11207332    -0.11000
C349        C  0.15773962  0.91301283  0.11245283     0.03700
C350        C  0.15917050  0.94349724  0.12553401    -0.10400
H351        H  0.07413742  0.88937847  0.14835896     0.09300
H352        H  0.12345538  0.85113150  0.10188085     0.06800
H353        H  0.18462398  0.97327989  0.12579350     0.06600
C354        C  0.82156549  0.90047252  0.11057875     0.03700
C355        C  0.81561130  0.93037960  0.12367652    -0.12500
C356        C  0.84437947  0.92477415  0.13703214     0.01200
C357        C  0.87982660  0.88891257  0.13732227    -0.11000
C358        C  0.88693701  0.85901213  0.12418384     0.03700
C359        C  0.85742046  0.86484137  0.11085290    -0.10400
H360        H  0.78826967  0.95824661  0.12349916     0.09300
H361        H  0.90252537  0.88522298  0.14761014     0.06800
H362        H  0.86160011  0.84110989  0.10084053     0.06600
C363        C  0.81850020  0.61091273  0.11193731     0.03700
C364        C  0.85607749  0.64499333  0.11162092    -0.12500
C365        C  0.88672388  0.65055396  0.12470678     0.01200
C366        C  0.87964011  0.62098148  0.13798725    -0.11000
C367        C  0.84271641  0.58625532  0.13813328     0.03700
C368        C  0.81226924  0.58167242  0.12515320    -0.10400
H369        H  0.86050890  0.66787052  0.10138905     0.09300
H370        H  0.90318708  0.62430127  0.14808774     0.06800
H371        H  0.78344720  0.55511842  0.12534082     0.06600
C372        C  0.15428449  0.59926725  0.11091557     0.03700
C373        C  0.16029067  0.57029423  0.12422500    -0.12500
C374        C  0.13369358  0.57914829  0.13788399     0.01200
C375        C  0.10099922  0.61769825  0.13828888    -0.11000
C376        C  0.09467320  0.64722011  0.12496920     0.03700
C377        C  0.12160011  0.63765510  0.11132900    -0.10400
H378        H  0.18636628  0.54124444  0.12404916     0.09300
H379        H  0.08060015  0.62445457  0.14891724     0.06800
H380        H  0.11760368  0.66029224  0.10102696     0.06600
C381        C  0.34695426  0.90914766  0.38639153     0.03700
C382        C  0.38297539  0.87339448  0.38649700    -0.12500
C383        C  0.41050895  0.86345266  0.37291091     0.01200
C384        C  0.40295445  0.89133224  0.35928546    -0.11000
C385        C  0.36787547  0.92770837  0.35920222     0.03700
C386        C  0.33891742  0.93482159  0.37244638    -0.10400
H387        H  0.38920081  0.85289262  0.39713540     0.09300
H388        H  0.42469196  0.88541530  0.34888890     0.06800
H389        H  0.30993015  0.96081952  0.37179989     0.06600
C390        C  0.69033751  0.89252201  0.38594568     0.03700
C391        C  0.65379123  0.85725263  0.38592673    -0.12500
C392        C  0.62124665  0.85380822  0.37329477     0.01200
C393        C  0.62594410  0.88579884  0.36053404    -0.11000
C394        C  0.66098718  0.92241394  0.36082962     0.03700
C395        C  0.69240308  0.92593871  0.37361474    -0.10400
H396        H  0.65122773  0.83198256  0.39561432     0.09300
H397        H  0.60149962  0.88331861  0.35063583     0.06800
H398        H  0.71893239  0.95473247  0.37386186     0.06600
C399        C  0.65410538  0.57480451  0.36485161     0.03700
C400        C  0.62265849  0.61448494  0.36366408    -0.12500
C401        C  0.61218995  0.64329841  0.37684671     0.01200
C402        C  0.63681029  0.63428281  0.39106627    -0.11000
C403        C  0.66965667  0.59595991  0.39223163     0.03700
C404        C  0.67686518  0.56578459  0.37928568    -0.10400
H405        H  0.60631907  0.62300882  0.35246356     0.09300
H406        H  0.63111825  0.65737553  0.40115598     0.06800
H407        H  0.70165137  0.53584791  0.38040081     0.06600
C408        C  0.34353322  0.60588758  0.39078605     0.03700
C409        C  0.33407050  0.57645749  0.37780652    -0.12500
C410        C  0.35483809  0.58613553  0.36302239     0.01200
C411        C  0.38699427  0.62574387  0.36179473    -0.11000
C412        C  0.40073181  0.65239112  0.37522289     0.03700
C413        C  0.37740461  0.64306976  0.38955671    -0.10400
H414        H  0.30932818  0.54650722  0.37930693     0.09300
H415        H  0.40146003  0.63601616  0.35049044     0.06800
H416        H  0.38528502  0.66481614  0.39982099     0.06600
O417        O  0.04423847  0.70417669  0.11198637    -0.72400
O418        O  0.94185140  0.80590232  0.11141467    -0.73400
O419        O  0.04463707  0.80726920  0.11178758    -0.62000
O420        O  0.94168348  0.70391997  0.11164580    -0.70400
O421        O  0.94163026  0.70369389  0.13770380    -0.70000
O422        O  0.04327535  0.80760572  0.13783259    -0.61200
O423        O  0.94127266  0.80633515  0.13747789    -0.73700
O424        O  0.04356032  0.70387385  0.13803938    -0.72500
Cu425      Cu  0.99330339  0.75529384  0.11080562     1.04600
Cu426      Cu  0.99256322  0.75540083  0.13866489     1.04300
C427        C  0.05937403  0.68713757  0.12503727     0.93800
C428        C  0.92512761  0.82200166  0.12437080     0.92900
C429        C  0.05943364  0.82454427  0.12486827     0.85100
C430        C  0.92524696  0.68768993  0.12466811     0.91400
O431        O  0.46223823  0.80841444  0.38633890    -0.72400
O432        O  0.55953188  0.70153963  0.38838166    -0.73400
O433        O  0.56490442  0.80335006  0.38677459    -0.62000
O434        O  0.45674129  0.70634769  0.38744475    -0.70400
O435        O  0.45759190  0.70257140  0.36144432    -0.70000
O436        O  0.56523345  0.80076346  0.36072589    -0.61200
O437        O  0.56080514  0.69751182  0.36238922    -0.73700
O438        O  0.46269315  0.80593586  0.36031558    -0.72500
Cu439      Cu  0.51077110  0.75501323  0.38809962     1.04600
Cu440      Cu  0.51164624  0.75154141  0.36028975     1.04300
C441        C  0.44697215  0.82421448  0.37314849     0.93800
C442        C  0.57591901  0.68270302  0.37578298     0.92900
C443        C  0.58205669  0.81750199  0.37360062     0.85100
C444        C  0.43995254  0.68905596  0.37461531     0.91400
O445        O  0.55541289  0.19254334  0.61076269    -0.72400
O446        O  0.45322925  0.29558936  0.61257161    -0.73400
O447        O  0.55566727  0.29512108  0.61106909    -0.62000
O448        O  0.45276878  0.19289796  0.61220689    -0.70400
O449        O  0.45565537  0.19224248  0.63823648    -0.70000
O450        O  0.55935852  0.29446694  0.63708381    -0.61200
O451        O  0.45715900  0.29594559  0.63858302    -0.73700
O452        O  0.55779715  0.19114658  0.63679535    -0.72500
Cu453      Cu  0.50415636  0.24408472  0.61076494     1.04600
Cu454      Cu  0.50762462  0.24343479  0.63858384     1.04300
C455        C  0.57233702  0.17511044  0.62352788     0.93800
C456        C  0.43932655  0.31241135  0.62580943     0.92900
C457        C  0.57364929  0.31120713  0.62386521     0.85100
C458        C  0.43812146  0.17607831  0.62536609     0.91400
O459        O  0.04061665  0.29702623  0.88894832    -0.72400
O460        O  0.93826139  0.19344494  0.88759488    -0.73400
O461        O  0.04182435  0.19525604  0.88704470    -0.62000
O462        O  0.93759190  0.29546795  0.88946673    -0.70400
O463        O  0.93661053  0.29996951  0.86345907    -0.70000
O464        O  0.04047828  0.19855725  0.86101594    -0.61200
O465        O  0.93757821  0.19715433  0.86156408    -0.73700
O466        O  0.03897497  0.30110555  0.86293669    -0.72500
Cu467      Cu  0.98950734  0.24500993  0.88915634     1.04600
Cu468      Cu  0.98824985  0.24926509  0.86133938     1.04300
C469        C  0.05613436  0.31529972  0.87609867     0.93800
C470        C  0.92159366  0.17912635  0.87438495     0.92900
C471        C  0.05839328  0.18177706  0.87373009     0.85100
C472        C  0.92111142  0.31414176  0.87683789     0.91400
C473        C  0.14230615  0.54877186  0.15181761    -0.11400
C474        C  0.10932612  0.51277305  0.15646746     0.04100
C475        C  0.12132643  0.48120935  0.16868866    -0.12000
C476        C  0.16581802  0.48526031  0.17644737     0.18900
C477        C  0.19830432  0.52192323  0.17199019    -0.09000
C478        C  0.18648104  0.55315604  0.15970223    -0.02000
H479        H  0.09623840  0.45292127  0.17199772     0.05400
C480        C  0.17828822  0.45017019  0.18885686     0.20900
H481        H  0.21209017  0.58068315  0.15614179     0.10600
C482        C  0.21488898  0.41641283  0.18605324    -0.15300
C483        C  0.22719857  0.38239233  0.19748952     0.03600
C484        C  0.20244855  0.38167191  0.21193660    -0.10700
C485        C  0.16613101  0.41561614  0.21478777    -0.00700
C486        C  0.15395915  0.44975994  0.20337527    -0.05800
H487        H  0.23384297  0.41653997  0.17491914     0.06600
H488        H  0.14702244  0.41526649  0.22589152     0.10000
Br489      Br  0.25886139  0.53108489  0.18247786    -0.05600
Br490      Br  0.04880219  0.50386342  0.14594850    -0.02500
Br491      Br  0.27831904  0.33798782  0.19301912     0.00400
Br492      Br  0.10478038  0.49585199  0.20824131    -0.04000
C493        C  0.18921933  0.13255396  0.21317012    -0.11400
C494        C  0.14282137  0.11174854  0.21314531     0.04100
C495        C  0.13029150  0.07825680  0.20150992    -0.12000
C496        C  0.16373783  0.06503059  0.18993411     0.18900
C497        C  0.21022748  0.08554077  0.19008327    -0.09000
C498        C  0.22261880  0.11911653  0.20163871    -0.02000
H499        H  0.09442616  0.06266059  0.20143977     0.05400
C500        C  0.14967412  0.03066109  0.17750773     0.20900
H501        H  0.25834441  0.13504985  0.20160086     0.10600
C502        C  0.13035307  0.04845650  0.16345234    -0.15300
C503        C  0.12153266  0.01757289  0.15077787     0.03600
C504        C  0.13180700  0.96794252  0.15213374    -0.10700
C505        C  0.14928262  0.94990204  0.16644069    -0.00700
C506        C  0.15853132  0.98094210  0.17906042    -0.05800
H507        H  0.12338813  0.08670211  0.16220318     0.06600
H508        H  0.15762286  0.91190889  0.16757289     0.10000
Br509      Br  0.25770353  0.06893094  0.17463404    -0.05600
Br510      Br  0.09565150  0.12874537  0.22864327    -0.02500
Br511      Br  0.09567419  0.04484646  0.13184925     0.00400
Br512      Br  0.18560525  0.95455866  0.19791002    -0.04000
C513        C  0.28043656  0.38187006  0.28992277    -0.11400
C514        C  0.32130574  0.37726312  0.29971645     0.04100
C515        C  0.33064058  0.41186833  0.31128690    -0.12000
C516        C  0.30140052  0.45281466  0.31289574     0.18900
C517        C  0.26261817  0.45919211  0.30239282    -0.09000
C518        C  0.25142499  0.42311603  0.29146879    -0.02000
H519        H  0.36148257  0.40717066  0.31893612     0.05400
C520        C  0.31355186  0.48905178  0.32516381     0.20900
H521        H  0.22058456  0.42790485  0.28382923     0.10600
C522        C  0.36013437  0.50876077  0.32554669    -0.15300
C523        C  0.37454827  0.54022579  0.33754382     0.03600
C524        C  0.34120169  0.55500522  0.34920958    -0.10700
C525        C  0.29391940  0.53602544  0.34838952    -0.00700
C526        C  0.28076241  0.50187781  0.33706273    -0.05800
H527        H  0.38617850  0.49810758  0.31672207     0.06600
H528        H  0.26706336  0.54631835  0.35696624     0.10000
Br529      Br  0.22655647  0.51814099  0.30149460    -0.05600
Br530      Br  0.36725913  0.32607252  0.29731328    -0.02500
Br531      Br  0.44158492  0.55635950  0.33784493     0.00400
Br532      Br  0.21970177  0.46982039  0.33958939    -0.04000
C533        C  0.28554787  0.13235180  0.28894705    -0.11400
C534        C  0.33320909  0.11488048  0.28857342     0.04100
C535        C  0.34788330  0.07989191  0.29939880    -0.12000
C536        C  0.31571092  0.06212175  0.31073086     0.18900
C537        C  0.26831373  0.08016126  0.31127443    -0.09000
C538        C  0.25333579  0.11436475  0.30024213    -0.02000
H539        H  0.38454157  0.06658009  0.29901849     0.05400
C540        C  0.33264340  0.02592996  0.32220320     0.20900
H541        H  0.21668568  0.12768684  0.30063753     0.10600
C542        C  0.36293851  0.04075087  0.33446208    -0.15300
C543        C  0.37701124  0.00823824  0.34614125     0.03600
C544        C  0.36105902  0.95993312  0.34557542    -0.10700
C545        C  0.33247192  0.94458028  0.33293959    -0.00700
C546        C  0.31822527  0.97722589  0.32127091    -0.05800
H547        H  0.37456124  0.07804533  0.33517450     0.06600
H548        H  0.31970954  0.90762941  0.33248193     0.10000
Br549      Br  0.22358545  0.06084587  0.32730203    -0.05600
Br550      Br  0.37945875  0.13794480  0.27354572    -0.02500
Br551      Br  0.41697015  0.03167369  0.36288795     0.00400
Br552      Br  0.27823821  0.95422511  0.30447313    -0.04000
C553        C  0.78823904  0.90591324  0.09709968    -0.11400
C554        C  0.80463528  0.91604298  0.08173584     0.04100
C555        C  0.77120933  0.92536017  0.06977705    -0.12000
C556        C  0.72156325  0.92469244  0.07289506     0.18900
C557        C  0.70519301  0.91368124  0.08811040    -0.09000
C558        C  0.73840425  0.90443620  0.10004092    -0.02000
H559        H  0.78394585  0.93388621  0.05806096     0.05400
C560        C  0.68707549  0.93583687  0.06023041     0.20900
H561        H  0.72526363  0.89669499  0.11177038     0.10600
C562        C  0.66514667  0.89782267  0.05202674    -0.15300
C563        C  0.63032577  0.90706968  0.04054494     0.03600
C564        C  0.61696306  0.95491889  0.03721272    -0.10700
C565        C  0.63950929  0.99299289  0.04522682    -0.00700
C566        C  0.67438554  0.98375953  0.05669423    -0.05800
H567        H  0.67479587  0.86088148  0.05469948     0.06600
H568        H  0.62942156  0.02989837  0.04268164     0.10000
Br569      Br  0.63782185  0.91227030  0.09321409    -0.05600
Br570      Br  0.87188042  0.92080396  0.07663743    -0.02500
Br571      Br  0.60173209  0.85351371  0.02973704     0.00400
Br572      Br  0.70280789  0.03742094  0.06752678    -0.04000
C573        C  0.36612631  0.96823585  0.03966180    -0.11400
C574        C  0.35635485  0.92126665  0.04513601     0.04100
C575        C  0.32093467  0.91384384  0.05660745    -0.12000
C576        C  0.29538534  0.95280322  0.06301775     0.18900
C577        C  0.30668108  0.00004485  0.05800478    -0.09000
C578        C  0.34121674  0.00731949  0.04621360    -0.02000
H579        H  0.31345565  0.87748457  0.06062960     0.05400
C580        C  0.25920232  0.94313684  0.07549363     0.20900
H581        H  0.34949941  0.04367905  0.04236798     0.10600
C582        C  0.27477958  0.92292326  0.08972608    -0.15300
C583        C  0.24198107  0.91216364  0.10171866     0.03600
C584        C  0.19248055  0.92107970  0.09953833    -0.10700
C585        C  0.17661876  0.94062205  0.08525499    -0.00700
C586        C  0.20950737  0.95166256  0.07324874    -0.05800
H587        H  0.31273702  0.91569071  0.09153494     0.06600
H588        H  0.13862210  0.94778024  0.08351448     0.10000
Br589      Br  0.27869739  0.05586457  0.06765783    -0.05600
Br590      Br  0.39087388  0.86636793  0.03738339    -0.02500
Br591      Br  0.26629742  0.88467428  0.12083058     0.00400
Br592      Br  0.18453906  0.97685553  0.05389836    -0.04000
C593        C  0.78522246  0.08905087  0.89990400    -0.11400
C594        C  0.74395097  0.11735803  0.90246905     0.04100
C595        C  0.71218229  0.10554130  0.91467630    -0.12000
C596        C  0.72090165  0.06558127  0.92439729     0.18900
C597        C  0.76239170  0.03748797  0.92187741    -0.09000
C598        C  0.79411541  0.04931243  0.90967411    -0.02000
H599        H  0.68009273  0.12705051  0.91642860     0.05400
C600        C  0.68541834  0.05287244  0.93671673     0.20900
H601        H  0.82560865  0.02712792  0.90767507     0.10600
C602        C  0.65624674  0.01182191  0.93476117    -0.15300
C603        C  0.62123827  0.99969346  0.94594671     0.03600
C604        C  0.61504526  0.02889400  0.95931021    -0.10700
C605        C  0.64447182  0.06965960  0.96134507    -0.00700
C606        C  0.67943576  0.08182862  0.95015882    -0.05800
H607        H  0.66053450  0.98938993  0.92444023     0.06600
H608        H  0.63998449  0.09216403  0.97163871     0.10000
Br609      Br  0.77737401  0.98302200  0.93487847    -0.05600
Br610      Br  0.72836927  0.17078174  0.88909941    -0.02500
Br611      Br  0.58279594  0.94298003  0.94261300     0.00400
Br612      Br  0.71879777  0.13770084  0.95384745    -0.04000
C613        C  0.36509533  0.04448016  0.96120718    -0.11400
C614        C  0.35870908  0.01697278  0.94746116     0.04100
C615        C  0.32671274  0.03252584  0.93584248    -0.12000
C616        C  0.30074038  0.07556231  0.93760061     0.18900
C617        C  0.30608563  0.10244162  0.95156468    -0.09000
C618        C  0.33820000  0.08683424  0.96321792    -0.02000
H619        H  0.32223214  0.01104856  0.92531024     0.05400
C620        C  0.26778374  0.09075815  0.92478732     0.20900
H621        H  0.34304890  0.10832022  0.97372806     0.10600
C622        C  0.21785734  0.09041947  0.92738589    -0.15300
C623        C  0.18542975  0.09901048  0.91508532     0.03600
C624        C  0.20288062  0.10800634  0.89973371    -0.10700
C625        C  0.25300166  0.10993546  0.89730147    -0.00700
C626        C  0.28530674  0.10155798  0.90963656    -0.05800
H627        H  0.20398245  0.08163591  0.93894474     0.06600
H628        H  0.26711556  0.11741761  0.88567595     0.10000
Br629      Br  0.27216141  0.16171146  0.95492925    -0.05600
Br630      Br  0.39312765  0.95797504  0.94407033    -0.02500
Br631      Br  0.11796541  0.09352374  0.91984660     0.00400
Br632      Br  0.35310631  0.10537633  0.90524050    -0.04000
C633        C  0.77119774  0.38187259  0.20989102    -0.11400
C634        C  0.74387755  0.38742827  0.19607963     0.04100
C635        C  0.75730497  0.42228426  0.18502370    -0.12000
C636        C  0.79791610  0.45164518  0.18751668     0.18900
C637        C  0.82449062  0.44683575  0.20150321    -0.09000
C638        C  0.81097171  0.41211728  0.21257597    -0.02000
H639        H  0.73641963  0.42613291  0.17434418     0.05400
C640        C  0.81253534  0.48628288  0.17522749     0.20900
H641        H  0.83222105  0.40783779  0.22316049     0.10600
C642        C  0.80684134  0.53590300  0.17785103    -0.15300
C643        C  0.81825534  0.56937832  0.16609675     0.03600
C644        C  0.83583882  0.55315542  0.15151414    -0.10700
C645        C  0.84226942  0.50357934  0.14902051    -0.00700
C646        C  0.83077876  0.47017351  0.16072684    -0.05800
H647        H  0.79238779  0.54847656  0.18893776     0.06600
H648        H  0.85542722  0.49080252  0.13778415     0.10000
Br649      Br  0.88087851  0.48504058  0.20559333    -0.05600
Br650      Br  0.68823929  0.34822112  0.19186908    -0.02500
Br651      Br  0.80578488  0.63628096  0.17005063     0.00400
Br652      Br  0.84047635  0.40297341  0.15636607    -0.04000
C653        C  0.83809364  0.95849964  0.15025333    -0.11400
C654        C  0.81985930  0.94331011  0.16490295     0.04100
C655        C  0.80908230  0.97760569  0.17643202    -0.12000
C656        C  0.81624700  0.02694677  0.17353715     0.18900
C657        C  0.83652057  0.04184484  0.15916357    -0.09000
C658        C  0.84686975  0.00770225  0.14761872    -0.02000
H659        H  0.79389710  0.96590558  0.18753594     0.05400
C660        C  0.80184505  0.06238052  0.18555754     0.20900
H661        H  0.86125903  0.01961989  0.13642459     0.10600
C662        C  0.82900529  0.06624628  0.19937625    -0.15300
C663        C  0.81695985  0.10014931  0.21085370     0.03600
C664        C  0.77703437  0.13064088  0.20857704    -0.10700
C665        C  0.74944888  0.12632460  0.19484905    -0.00700
C666        C  0.76137720  0.09225983  0.18339960    -0.05800
H667        H  0.86002882  0.04323069  0.20112986     0.06600
H668        H  0.71850671  0.14944224  0.19308783     0.10000
Br669      Br  0.85088973  0.10828654  0.15480053    -0.05600
Br670      Br  0.80612340  0.87679737  0.16932792    -0.02500
Br671      Br  0.85682433  0.10455781  0.22921887     0.00400
Br672      Br  0.72073473  0.08690016  0.16523258    -0.04000
C673        C  0.71998442  0.37584806  0.28968950    -0.11400
C674        C  0.74999592  0.41644584  0.29191571     0.04100
C675        C  0.73833816  0.45066641  0.30337250    -0.12000
C676        C  0.69923242  0.44347327  0.31364799     0.18900
C677        C  0.67035945  0.40167310  0.31175782    -0.09000
C678        C  0.68016228  0.36927096  0.29962374    -0.02000
H679        H  0.76058775  0.48266550  0.30444561     0.05400
C680        C  0.68908846  0.47962393  0.32617510     0.20900
H681        H  0.65716120  0.33791797  0.29815370     0.10600
C682        C  0.64202671  0.49726743  0.32795082    -0.15300
C683        C  0.62953322  0.52652528  0.34067345     0.03600
C684        C  0.66543394  0.54366159  0.35102372    -0.10700
C685        C  0.71325700  0.52854862  0.34859531    -0.00700
C686        C  0.72497401  0.49564529  0.33675070    -0.05800
H687        H  0.61403001  0.48595955  0.31987466     0.06600
H688        H  0.74167993  0.54103429  0.35632080     0.10000
Br689      Br  0.61898467  0.38447999  0.32588148    -0.05600
Br690      Br  0.80868730  0.42549279  0.28028680    -0.02500
Br691      Br  0.56220923  0.53485211  0.34453723     0.00400
Br692      Br  0.78958536  0.47090754  0.33672885    -0.04000
C693        C  0.66655198  0.95648364  0.34762970    -0.11400
C694        C  0.65919323  0.00636071  0.34968177     0.04100
C695        C  0.66919414  0.03819639  0.33736796    -0.12000
C696        C  0.68687898  0.02112664  0.32298690     0.18900
C697        C  0.69423557  0.97134396  0.32090677    -0.09000
C698        C  0.68368637  0.93935623  0.33316883    -0.02000
H699        H  0.66342838  0.07649775  0.33902616     0.05400
C700        C  0.69710914  0.05603444  0.31032835     0.20900
H701        H  0.69007381  0.90114026  0.33156944     0.10600
C702        C  0.74509864  0.06700844  0.30644821    -0.15300
C703        C  0.75562518  0.10165831  0.29498228     0.03600
C704        C  0.71779087  0.12628779  0.28748396    -0.10700
C705        C  0.66989912  0.11481708  0.29119595    -0.00700
C706        C  0.65935694  0.07972846  0.30247186    -0.05800
H707        H  0.77432172  0.04879108  0.31242383     0.06600
H708        H  0.64069574  0.13320127  0.28526356     0.10000
Br709      Br  0.71853077  0.94566256  0.30155275    -0.05600
Br710      Br  0.63508168  0.03265352  0.36899013    -0.02500
Br711      Br  0.82182310  0.11455420  0.28992118     0.00400
Br712      Br  0.59299894  0.06437501  0.30650847    -0.04000
C713        C  0.35903148  0.54677971  0.03765462    -0.11400
C714        C  0.32307444  0.58137986  0.03465999     0.04100
C715        C  0.28779859  0.59063839  0.04602969    -0.12000
C716        C  0.28824675  0.56618529  0.06047443     0.18900
C717        C  0.32453813  0.53207049  0.06350625    -0.09000
C718        C  0.35937716  0.52246329  0.05210350    -0.02000
H719        H  0.26019405  0.61722270  0.04367117     0.05400
C720        C  0.25115556  0.57678390  0.07241297     0.20900
H721        H  0.38724260  0.49622892  0.05455835     0.10600
C722        C  0.21687517  0.54125243  0.07617494    -0.15300
C723        C  0.18426852  0.54819585  0.08849301     0.03600
C724        C  0.18516105  0.59172231  0.09703129    -0.10700
C725        C  0.21829565  0.62788932  0.09288610    -0.00700
C726        C  0.25147044  0.62056666  0.08077475    -0.05800
H727        H  0.21639931  0.50749948  0.06976486     0.06600
H728        H  0.21960341  0.66121566  0.09952014     0.10000
Br729      Br  0.32920568  0.49931264  0.08332034    -0.05600
Br730      Br  0.32180759  0.61777529  0.01548786    -0.02500
Br731      Br  0.13942991  0.49729004  0.09320562     0.00400
Br732      Br  0.29879473  0.66979879  0.07691715    -0.04000
C733        C  0.60783851  0.55317030  0.04081426    -0.11400
C734        C  0.61288392  0.52452097  0.05437107     0.04100
C735        C  0.64781940  0.53634796  0.06557089    -0.12000
C736        C  0.67775312  0.57674522  0.06348869     0.18900
C737        C  0.67234052  0.60569544  0.05002186    -0.09000
C738        C  0.63760325  0.59369252  0.03876144    -0.02000
H739        H  0.65174824  0.51397413  0.07593185     0.05400
C740        C  0.71415480  0.58824202  0.07556793     0.20900
H741        H  0.63374742  0.61593676  0.02837099     0.10600
C742        C  0.76277314  0.57726271  0.07278625    -0.15300
C743        C  0.79767861  0.58564967  0.08435837     0.03600
C744        C  0.78406069  0.60604653  0.09882977    -0.10700
C745        C  0.73547695  0.61737231  0.10151838    -0.00700
C746        C  0.70056145  0.60840835  0.09005562    -0.05800
H747        H  0.77330969  0.56094857  0.06174945     0.06600
H748        H  0.72456950  0.63229860  0.11272784     0.10000
Br749      Br  0.71081454  0.66244825  0.04678784    -0.05600
Br750      Br  0.57341307  0.46855108  0.05786039    -0.02500
Br751      Br  0.86251413  0.56501040  0.08044652     0.00400
Br752      Br  0.63465502  0.62350684  0.09474398    -0.04000
C753        C  0.19787854  0.39518517  0.90239596    -0.11400
C754        C  0.24682434  0.38251315  0.90083544     0.04100
C755        C  0.27912780  0.39161809  0.91312695    -0.12000
C756        C  0.26351673  0.41332635  0.92711842     0.18900
C757        C  0.21428987  0.42490616  0.92882818    -0.09000
C758        C  0.18191025  0.41555512  0.91654763    -0.02000
H759        H  0.31684365  0.38268208  0.91163019     0.05400
C760        C  0.29956713  0.42635081  0.93931461     0.20900
H761        H  0.14438755  0.42547941  0.91787313     0.10600
C762        C  0.30764115  0.47528341  0.94272698    -0.15300
C763        C  0.34177311  0.48922285  0.95394305     0.03600
C764        C  0.36930607  0.45405060  0.96173529    -0.10700
C765        C  0.36167499  0.40514148  0.95829892    -0.00700
C766        C  0.32693591  0.39107926  0.94723980    -0.05800
H767        H  0.28723537  0.50277404  0.93662526     0.06600
H768        H  0.38241295  0.37787112  0.96438517     0.10000
Br769      Br  0.18963855  0.45360886  0.94769306    -0.05600
Br770      Br  0.27115590  0.35259368  0.88213589    -0.02500
Br771      Br  0.34980430  0.55666023  0.95829516     0.00400
Br772      Br  0.31679149  0.32337222  0.94386751    -0.04000
C773        C  0.79785284  0.41048042  0.90672897    -0.11400
C774        C  0.81145612  0.40695405  0.92269312     0.04100
C775        C  0.77721629  0.41545908  0.93453939    -0.12000
C776        C  0.72943009  0.42712842  0.93072163     0.18900
C777        C  0.71566300  0.42950722  0.91486989    -0.09000
C778        C  0.74958469  0.42107757  0.90309154    -0.02000
H779        H  0.78801850  0.41365503  0.94675428     0.05400
C780        C  0.69426956  0.43846354  0.94322550     0.20900
H781        H  0.73813287  0.42292052  0.89094983     0.10600
C782        C  0.68914244  0.48646802  0.94812255    -0.15300
C783        C  0.65267480  0.49946199  0.95865998     0.03600
C784        C  0.62074132  0.46403482  0.96448623    -0.10700
C785        C  0.62638876  0.41589786  0.95975955    -0.00700
C786        C  0.66281027  0.40297006  0.94919789    -0.05800
H787        H  0.71279585  0.51408601  0.94339800     0.06600
H788        H  0.60210057  0.38841802  0.96421665     0.10000
Br789      Br  0.65090770  0.44494168  0.90877442    -0.05600
Br790      Br  0.87639969  0.39353596  0.92903004    -0.02500
Br791      Br  0.64648939  0.56619858  0.96423628     0.00400
Br792      Br  0.66765593  0.33678265  0.94289650    -0.04000
C793        C  0.88843118  0.95633216  0.46013142    -0.11400
C794        C  0.85291388  0.98826168  0.45460052     0.04100
C795        C  0.82003195  0.97279367  0.44321625    -0.12000
C796        C  0.82202413  0.92575012  0.43720254     0.18900
C797        C  0.85735736  0.89372430  0.44276939    -0.09000
C798        C  0.89029923  0.90918973  0.45415411    -0.02000
H799        H  0.79327583  0.99778589  0.43882652     0.05400
C800        C  0.78871765  0.91206904  0.42444423     0.20900
H801        H  0.91747200  0.88439864  0.45838878     0.10600
C802        C  0.80645174  0.90935470  0.40907160    -0.15300
C803        C  0.77538468  0.90111849  0.39643392     0.03600
C804        C  0.72524541  0.89610545  0.39910106    -0.10700
C805        C  0.70794340  0.89687058  0.41462244    -0.00700
C806        C  0.73926768  0.90474324  0.42724443    -0.05800
H807        H  0.84462907  0.91441767  0.40688348     0.06600
H808        H  0.66973118  0.89277101  0.41691788     0.10000
Br809      Br  0.86124091  0.82851884  0.43534565    -0.05600
Br810      Br  0.84915005  0.05366895  0.46181750    -0.02500
Br811      Br  0.80412708  0.89568379  0.37595723     0.00400
Br812      Br  0.71315240  0.90538315  0.44810647    -0.04000
C813        C  0.70184703  0.08268493  0.59514515    -0.11400
C814        C  0.70052919  0.04055679  0.58587232     0.04100
C815        C  0.73571232  0.03299645  0.57431066    -0.12000
C816        C  0.77274594  0.06683387  0.57181105     0.18900
C817        C  0.77308494  0.10969289  0.58072549    -0.09000
C818        C  0.73776255  0.11734993  0.59223285    -0.02000
H819        H  0.73454771  0.00029156  0.56735872     0.05400
C820        C  0.81110995  0.05649280  0.56009106     0.20900
H821        H  0.73940973  0.14969792  0.59935070     0.10600
C822        C  0.81474949  0.08490209  0.54646603    -0.15300
C823        C  0.85104641  0.07645988  0.53534228     0.03600
C824        C  0.88421673  0.03871283  0.53766372    -0.10700
C825        C  0.88065976  0.01038565  0.55128092    -0.00700
C826        C  0.84456902  0.01896812  0.56244644    -0.05800
H827        H  0.78939462  0.11393786  0.54453299     0.06600
H828        H  0.90605519  0.98137345  0.55319760     0.10000
Br829      Br  0.82285088  0.15737634  0.57832847    -0.05600
Br830      Br  0.65092121  0.99278880  0.58839426    -0.02500
Br831      Br  0.85479306  0.11805784  0.51736759     0.00400
Br832      Br  0.84351314  0.97950679  0.58097152    -0.04000
C833        C  0.13549546  0.03509343  0.53802962    -0.11400
C834        C  0.16020626  0.07958713  0.53783006     0.04100
C835        C  0.19516177  0.08957036  0.54928031    -0.12000
C836        C  0.20595536  0.05553303  0.56096306     0.18900
C837        C  0.18160680  0.01087898  0.56102456    -0.09000
C838        C  0.14664591  0.00096839  0.54961994    -0.02000
H839        H  0.21347246  0.12415407  0.54921274     0.05400
C840        C  0.24037752  0.06797775  0.57361542     0.20900
H841        H  0.12794633  0.96659578  0.54980326     0.10600
C842        C  0.22220864  0.08420852  0.58802565    -0.15300
C843        C  0.25302057  0.09330685  0.60068576     0.03600
C844        C  0.30313096  0.08651895  0.59902054    -0.10700
C845        C  0.32150785  0.07150072  0.58444060    -0.01100
C846        C  0.29045373  0.06185950  0.57180471    -0.05800
H847        H  0.18372974  0.08909717  0.58949142     0.06600
H848        H  0.35990503  0.06592991  0.58303302     0.10000
Br849      Br  0.19504335  0.96253203  0.57652579    -0.05600
Br850      Br  0.14641123  0.12782424  0.52232063    -0.02500
Br851      Br  0.22489037  0.11565270  0.61994968     0.00400
Br852      Br  0.31740742  0.03824680  0.55255055    -0.04000
C853        C  0.31575709  0.91810039  0.40043492    -0.11400
C854        C  0.30192714  0.96512960  0.40504070     0.04100
C855        C  0.26736919  0.97147332  0.41682555    -0.12000
C856        C  0.24886926  0.93222777  0.42538705     0.18900
C857        C  0.26542916  0.88542431  0.42160065    -0.09000
C858        C  0.29747692  0.87873986  0.40904083    -0.02000
H859        H  0.25521883  0.00767844  0.41941037     0.05400
C860        C  0.21151634  0.94104583  0.43775483     0.20900
H861        H  0.30782660  0.84234308  0.40593980     0.10600
C862        C  0.16838988  0.91422359  0.43757452    -0.15300
C863        C  0.13253352  0.92117167  0.44894979     0.03600
C864        C  0.13736697  0.95851520  0.46017406    -0.10700
C865        C  0.17970680  0.98656045  0.45996336    -0.00700
C866        C  0.21712801  0.97711333  0.44936890    -0.05800
H867        H  0.16269338  0.88707683  0.42862060     0.06600
H868        H  0.18429029  0.01542395  0.46840880     0.10000
Br869      Br  0.24756136  0.82921454  0.43349250    -0.05600
Br870      Br  0.33153509  0.02267074  0.39685366    -0.02500
Br871      Br  0.07933961  0.87655378  0.44895136     0.00400
Br872      Br  0.27603804  0.01270944  0.45222280    -0.04000
C873        C  0.13837909  0.55176476  0.46378464    -0.11400
C874        C  0.17392342  0.58690214  0.46707414     0.04100
C875        C  0.20962926  0.59731237  0.45591102    -0.12000
C876        C  0.21041611  0.57323686  0.44142394     0.18900
C877        C  0.17471787  0.53847697  0.43810297    -0.09000
C878        C  0.13914317  0.52802708  0.44923871    -0.02000
H879        H  0.23683397  0.62428202  0.45851409     0.05400
C880        C  0.24829064  0.58473602  0.42976931     0.20900
H881        H  0.11198285  0.50106040  0.44657871     0.10600
C882        C  0.28433821  0.55062574  0.42664611    -0.15300
C883        C  0.31738262  0.55795806  0.41443965     0.03600
C884        C  0.31459511  0.59997333  0.40520657    -0.10700
C885        C  0.28016226  0.63517805  0.40884818    -0.00700
C886        C  0.24707031  0.62784775  0.42102136    -0.05800
H887        H  0.28588635  0.51763366  0.43345594     0.06600
H888        H  0.27769796  0.66754802  0.40175139     0.10000
Br889      Br  0.17248836  0.50516186  0.41835739    -0.05600
Br890      Br  0.17467034  0.62214402  0.48646204    -0.02500
Br891      Br  0.36557788  0.50984979  0.41071319     0.00400
Br892      Br  0.19887625  0.67612395  0.42452817    -0.04000
C893        C  0.13335042  0.46193023  0.54057915    -0.11400
C894        C  0.16774140  0.49463017  0.54653695     0.04100
C895        C  0.20141715  0.47918778  0.55769255    -0.12000
C896        C  0.20173823  0.43123354  0.56304020     0.18900
C897        C  0.16724042  0.39853010  0.55707783    -0.09000
C898        C  0.13339660  0.41407230  0.54597603    -0.02000
H899        H  0.22717377  0.50488828  0.56237400     0.05400
C900        C  0.23660566  0.41713232  0.57545151     0.20900
H901        H  0.10722944  0.38860018  0.54140164     0.10600
C902        C  0.21922367  0.40415507  0.59035882    -0.15300
C903        C  0.25092538  0.39464172  0.60275610     0.03600
C904        C  0.30113081  0.39879813  0.60044715    -0.10700
C905        C  0.31863565  0.41008453  0.58540047    -0.00700
C906        C  0.28685773  0.41920730  0.57294896    -0.05800
H907        H  0.18072455  0.40210805  0.59242247     0.06600
H908        H  0.35713364  0.41280803  0.58341467     0.10000
Br909      Br  0.16587097  0.33199751  0.56330486    -0.05600
Br910      Br  0.16914295  0.56096110  0.54012663    -0.02500
Br911      Br  0.22387025  0.37464017  0.62248826     0.00400
Br912      Br  0.31371038  0.43369641  0.55270155    -0.04000
C913        C  0.88323458  0.45536605  0.53779991    -0.11400
C914        C  0.88720474  0.41796108  0.54900363     0.04100
C915        C  0.84987879  0.40988429  0.55976699    -0.12000
C916        C  0.80572334  0.43438383  0.55854564     0.18900
C917        C  0.80072787  0.46976287  0.54669078    -0.09000
C918        C  0.83993900  0.48150806  0.53709107    -0.02000
H919        H  0.85513535  0.38335561  0.56893702     0.05400
C920        C  0.76642075  0.42408267  0.57007791     0.20900
H921        H  0.83583730  0.51008540  0.52851207     0.10600
C922        C  0.74359799  0.46288035  0.57762302    -0.15300
C923        C  0.70742824  0.45527794  0.58876623     0.03600
C924        C  0.69642947  0.40801699  0.59380447    -0.10700
C925        C  0.71830701  0.36902649  0.58609734    -0.00700
C926        C  0.75218786  0.37655289  0.57412743    -0.05800
H927        H  0.75397678  0.49961482  0.57488583     0.06600
H928        H  0.71001570  0.33241533  0.58967644     0.10000
Br929      Br  0.74044214  0.50056650  0.54197315    -0.05600
Br930      Br  0.94060352  0.37402155  0.54944209    -0.02500
Br931      Br  0.67265173  0.51076652  0.59607192     0.00400
Br932      Br  0.77656827  0.32021314  0.56369222    -0.04000
C933        C  0.88724821  0.53765042  0.46131647    -0.11400
C934        C  0.88679042  0.51780766  0.44606810     0.04100
C935        C  0.84920765  0.52901411  0.43568470    -0.12000
C936        C  0.81163571  0.55973949  0.44027798     0.18900
C937        C  0.81180294  0.57916991  0.45554491    -0.09000
C938        C  0.84944754  0.56820468  0.46589972    -0.02000
H939        H  0.84919141  0.51361488  0.42399040     0.05400
C940        C  0.77274098  0.57127311  0.42895419     0.20900
H941        H  0.84908200  0.58324371  0.47764325     0.10600
C942        C  0.73501155  0.53820608  0.42659233    -0.15300
C943        C  0.69921759  0.54703077  0.41532669     0.03600
C944        C  0.70083092  0.58955229  0.40622466    -0.10700
C945        C  0.73768851  0.62331717  0.40899442    -0.00700
C946        C  0.77358157  0.61437394  0.42018962    -0.05800
H947        H  0.73383479  0.50512771  0.43337063     0.06600
H948        H  0.73985319  0.65570874  0.40189306     0.10000
Br949      Br  0.76077178  0.62002557  0.46277784    -0.05600
Br950      Br  0.93564899  0.47383254  0.43916100    -0.02500
Br951      Br  0.64894161  0.50003723  0.41267633     0.00400
Br952      Br  0.82465308  0.66065078  0.42251434    -0.04000
C953        C  0.29659857  0.62014169  0.71296968    -0.11400
C954        C  0.26204486  0.59088872  0.70543944     0.04100
C955        C  0.27674347  0.55605424  0.69455794    -0.12000
C956        C  0.32576256  0.54953718  0.69106806     0.18900
C957        C  0.36039337  0.57835468  0.69878404    -0.09000
C958        C  0.34564759  0.61340665  0.70961183    -0.02000
H959        H  0.24977047  0.53445531  0.68859176     0.05400
C960        C  0.33950812  0.51501428  0.67853692     0.20900
H961        H  0.37249582  0.63540072  0.71548357     0.10600
C962        C  0.35555472  0.53316865  0.66406324    -0.15300
C963        C  0.36479491  0.50228232  0.65142353     0.03600
C964        C  0.35867220  0.45198394  0.65317822    -0.10700
C965        C  0.34405178  0.43366474  0.66782499    -0.00700
C966        C  0.33393321  0.46476247  0.68039881    -0.05800
H967        H  0.35969796  0.57174780  0.66247230     0.06600
H968        H  0.33879362  0.39518737  0.66930941     0.10000
Br969      Br  0.42814309  0.57028169  0.69516619    -0.05600
Br970      Br  0.19441001  0.59819887  0.70941899    -0.02500
Br971      Br  0.38548960  0.53079104  0.63199182     0.00400
Br972      Br  0.31178270  0.43721027  0.69979159    -0.04000
C973        C  0.14684850  0.44767169  0.84895901    -0.11400
C974        C  0.11340513  0.48352463  0.84467127     0.04100
C975        C  0.12355826  0.51444931  0.83205917    -0.12000
C976        C  0.16649845  0.50987190  0.82345697     0.18900
C977        C  0.19902732  0.47286653  0.82739927    -0.09000
C978        C  0.18925374  0.44244724  0.84014336    -0.02000
H979        H  0.09845355  0.54298676  0.82920054     0.05400
C980        C  0.17858186  0.54628573  0.81129842     0.20900
H981        H  0.21490242  0.41461130  0.84322343     0.10600
C982        C  0.21710045  0.57813551  0.81405043    -0.15300
C983        C  0.22941009  0.61359802  0.80305987     0.03600
C984        C  0.20262830  0.61812916  0.78909584    -0.10700
C985        C  0.16413688  0.58624230  0.78627446    -0.00700
C986        C  0.15204170  0.55040994  0.79724481    -0.05800
H987        H  0.23775320  0.57529087  0.82481127     0.06600
H988        H  0.14367631  0.58914838  0.77548020     0.10000
Br989      Br  0.25677011  0.46198030  0.81552121    -0.05600
Br990      Br  0.05491405  0.49359006  0.85625101    -0.02500
Br991      Br  0.28389625  0.65429077  0.80738738     0.00400
Br992      Br  0.10037748  0.50681231  0.79231084    -0.04000
C993        C  0.20523363  0.86893285  0.79007375    -0.11400
C994        C  0.23036212  0.87334224  0.80437886     0.04100
C995        C  0.21825004  0.91005415  0.81495053    -0.12000
C996        C  0.18114532  0.94275510  0.81152421     0.18900
C997        C  0.15624115  0.93851074  0.79714716    -0.09000
C998        C  0.16820617  0.90163615  0.78661502    -0.02000
H999        H  0.23794588  0.91321435  0.82589282     0.05400
C1000       C  0.17000471  0.98146282  0.82300083     0.20900
H1001       H  0.14908857  0.89885616  0.77555469     0.10600
C1002       C  0.20425139  0.01791115  0.82573034    -0.15300
C1003       C  0.19650195  0.05324075  0.83721832     0.03600
C1004       C  0.15377897  0.05256054  0.84622291    -0.10700
C1005       C  0.11903944  0.01677345  0.84322878    -0.00700
C1006       C  0.12702776  0.98113538  0.83185517    -0.05800
H1007       H  0.23741749  0.01853521  0.81900079     0.06600
H1008       H  0.08641358  0.01539049  0.85022079     0.10000
Br1009     Br  0.10726526  0.98344636  0.79104278    -0.05600
Br1010     Br  0.28238401  0.83092788  0.80970094    -0.02500
Br1011     Br  0.24504650  0.10196993  0.84005140     0.00400
Br1012     Br  0.07984989  0.93078907  0.82966187    -0.04000
C1013       C  0.29467143  0.87197217  0.71364560    -0.11400
C1014       C  0.25892422  0.89802445  0.70555487     0.04100
C1015       C  0.27226876  0.93269592  0.69437079    -0.12000
C1016       C  0.32104682  0.94210381  0.69117663     0.18900
C1017       C  0.35676237  0.91735095  0.69970223    -0.09000
C1018       C  0.34342476  0.88232917  0.71076658    -0.02000
H1019       H  0.24454213  0.95165075  0.68790071     0.05400
C1020       C  0.33384170  0.97546505  0.67821919     0.20900
H1021       H  0.37112104  0.86295800  0.71711393     0.10600
C1022       C  0.33036508  0.02549089  0.68041483    -0.15300
C1023       C  0.34008366  0.05756685  0.66803532     0.03600
C1024       C  0.35319058  0.03952857  0.65312146    -0.10700
C1025       C  0.35701514  0.98941439  0.65105382    -0.00700
C1026       C  0.34754073  0.95751928  0.66342127    -0.05800
H1027       H  0.31939125  0.03955782  0.69173120     0.06600
H1028       H  0.36679893  0.97498155  0.63966818     0.10000
Br1029     Br  0.42403820  0.93041034  0.69657598    -0.05600
Br1030     Br  0.19162676  0.88644168  0.70918535    -0.02500
Br1031     Br  0.33162722  0.12523159  0.67184775     0.00400
Br1032     Br  0.35184165  0.88954874  0.65941689    -0.04000
C1033       C  0.81553594  0.62093561  0.78690582    -0.11400
C1034       C  0.86283351  0.61467683  0.79261040     0.04100
C1035       C  0.87115060  0.58458615  0.80557894    -0.12000
C1036       C  0.83395407  0.55589056  0.81196054     0.18900
C1037       C  0.78762472  0.55863408  0.80497070    -0.09000
C1038       C  0.77836696  0.59280749  0.79330297    -0.02000
H1039       H  0.90680017  0.58410947  0.81071136     0.05400
C1040       C  0.84249581  0.52589227  0.82636002     0.20900
H1041       H  0.74200099  0.59644303  0.78882450     0.10600
C1042       C  0.80786117  0.52677969  0.83837693    -0.15300
C1043       C  0.80906981  0.49425105  0.85090591     0.03600
C1044       C  0.85017739  0.46469729  0.85327806    -0.10700
C1045       C  0.88750171  0.46765431  0.84201287    -0.00700
C1046       C  0.88299692  0.49565884  0.82835676    -0.05800
H1047       H  0.77736748  0.55088962  0.83745951     0.06600
H1048       H  0.92009353  0.44682510  0.84343092     0.10000
Br1049     Br  0.73588302  0.51471538  0.80985025    -0.05600
Br1050     Br  0.91700996  0.64646622  0.78303084    -0.02500
Br1051     Br  0.74918609  0.48807242  0.86216945     0.00400
Br1052     Br  0.93149636  0.48684269  0.81249963    -0.04000
C1053       C  0.74593214  0.61684276  0.70749306    -0.11400
C1054       C  0.77522141  0.57615813  0.70483537     0.04100
C1055       C  0.75928092  0.53949505  0.69479070    -0.12000
C1056       C  0.71744151  0.54503682  0.68562898     0.18900
C1057       C  0.69022541  0.58779407  0.68739730    -0.09000
C1058       C  0.70345791  0.62188609  0.69869404    -0.02000
H1059       H  0.78054685  0.50697893  0.69385629     0.05400
C1060       C  0.70328725  0.50671974  0.67416856     0.20900
H1061       H  0.68103517  0.65341701  0.70032018     0.10600
C1062       C  0.65505270  0.49083734  0.67355075    -0.15300
C1063       C  0.63868688  0.46047129  0.66150623     0.03600
C1064       C  0.67193750  0.44128648  0.65059948    -0.10700
C1065       C  0.72100264  0.45315893  0.65232990    -0.00700
C1066       C  0.73656274  0.48678909  0.66342215    -0.05800
H1067       H  0.62919620  0.50437050  0.68198664     0.06600
H1068       H  0.74744601  0.43820159  0.64435089     0.10000
Br1069     Br  0.63690502  0.60429461  0.67403208    -0.05600
Br1070     Br  0.83854063  0.57022142  0.71375605    -0.02500
Br1071     Br  0.57009981  0.45231075  0.65963263     0.00400
Br1072     Br  0.80271431  0.50717028  0.66179202    -0.04000
C1073       C  0.65034710  0.03151102  0.64869346    -0.11400
C1074       C  0.63903389  0.98207714  0.64737836     0.04100
C1075       C  0.65071207  0.95033836  0.65958907    -0.12000
C1076       C  0.67253791  0.96726976  0.67341439     0.18900
C1077       C  0.68093194  0.01719967  0.67513029    -0.09000
C1078       C  0.67010264  0.04882105  0.66278379    -0.02000
H1079       H  0.64335754  0.91217061  0.65820231     0.05400
C1080       C  0.68872486  0.93215133  0.68547860     0.20900
H1081       H  0.67818131  0.08688810  0.66404080     0.10600
C1082       C  0.73827714  0.92770329  0.68857216    -0.15300
C1083       C  0.75518523  0.89448234  0.69964771     0.03600
C1084       C  0.72244550  0.86434870  0.70763928    -0.10700
C1085       C  0.67294622  0.86854638  0.70455214    -0.00700
C1086       C  0.65590167  0.90225240  0.69362100    -0.05800
H1087       H  0.76391508  0.95022618  0.68232900     0.06600
H1088       H  0.64748698  0.84586276  0.71081026     0.10000
Br1089     Br  0.70634945  0.04386104  0.69421378    -0.05600
Br1090     Br  0.60625613  0.95663455  0.62934480    -0.02500
Br1091     Br  0.82315330  0.89138512  0.70358510     0.00400
Br1092     Br  0.58751568  0.90762114  0.69073699    -0.04000
C1093       C  0.79736297  0.87244510  0.78583191    -0.11400
C1094       C  0.76079173  0.88807712  0.79607205     0.04100
C1095       C  0.77104337  0.92314301  0.80740230    -0.12000
C1096       C  0.81766471  0.94241517  0.80881244     0.18900
C1097       C  0.85435070  0.92648285  0.79867621    -0.09000
C1098       C  0.84391186  0.89201379  0.78716665    -0.02000
H1099       H  0.74284917  0.93475822  0.81534406     0.05400
C1100       C  0.82784523  0.97689268  0.82157125     0.20900
H1101       H  0.87237205  0.87954317  0.77947059     0.10600
C1102       C  0.83969573  0.95894268  0.83644850    -0.15300
C1103       C  0.84726064  0.99024261  0.84906826     0.03600
C1104       C  0.84192326  0.04042730  0.84695011    -0.10700
C1105       C  0.83173835  0.05846196  0.83189554    -0.00700
C1106       C  0.82489186  0.02703537  0.81921102    -0.05800
H1107       H  0.84305259  0.92039335  0.83823151     0.06600
H1108       H  0.82810725  0.09696457  0.83008466     0.10000
Br1109     Br  0.91937598  0.94948138  0.80061867    -0.05600
Br1110     Br  0.69705425  0.86113569  0.79528212    -0.02500
Br1111     Br  0.86689727  0.96277038  0.86876071     0.00400
Br1112     Br  0.81117054  0.05379699  0.79892669    -0.04000
loop_ 
_geom_bond_atom_site_label_1 
_geom_bond_atom_site_label_2 
_geom_bond_distance 
_geom_bond_site_symmetry_2 
_ccdc_geom_bond_type 
N1            C6   1.354       .  A
N1            C5   1.353       .  A
N1           H33   1.041       .  S
N2            C9   1.353       .  A
N2           C10   1.354       .  A
N3            C8   1.354       .  A
N3            C7   1.355       .  A
N3           H34   1.036       .  S
N4           C11   1.351       .  A
N4           C12   1.350       .  A
C5           C13   1.388       .  A
C5           C21   1.418       .  A
C6           C22   1.414       .  A
C6           C14   1.386       .  A
C7           C15   1.389       .  A
C7           C24   1.424       .  A
C8           C23   1.420       .  A
C8           C16   1.387       .  A
C9           C21   1.417       .  A
C9           C17   1.385       .  A
C10          C24   1.421       .  A
C10          C18   1.388       .  A
C11          C19   1.385       .  A
C11          C22   1.412       .  A
C12          C20   1.387       .  A
C12          C23   1.415       .  A
C13          C14   1.376       .  A
C13          H25   1.082       .  S
C14          H26   1.082       .  S
C15          C16   1.372       .  A
C15          H27   1.081       .  S
C16          H28   1.082       .  S
C17          C18   1.370       .  A
C17          H29   1.082       .  S
C18          H30   1.080       .  S
C19          C20   1.373       .  A
C19          H31   1.082       .  S
C20          H32   1.082       .  S
C21        C1053   1.496       .  S
C22        C1084   1.488       .  S
C23        C1093   1.484       .  S
C24        C1033   1.496       .  S
N35          C40   1.354       .  A
N35          C39   1.354       .  A
N35          H67   1.038       .  S
N36          C43   1.352       .  A
N36          C44   1.352       .  A
N37          C42   1.355       .  A
N37          C41   1.354       .  A
N37          H68   1.038       .  S
N38          C45   1.352       .  A
N38          C46   1.352       .  A
C39          C47   1.387       .  A
C39          C55   1.417       .  A
C40          C56   1.417       .  A
C40          C48   1.387       .  A
C41          C49   1.387       .  A
C41          C58   1.418       .  A
C42          C57   1.418       .  A
C42          C50   1.387       .  A
C43          C55   1.414       .  A
C43          C51   1.386       .  A
C44          C58   1.415       .  A
C44          C52   1.386       .  A
C45          C53   1.387       .  A
C45          C56   1.415       .  A
C46          C54   1.386       .  A
C46          C57   1.413       .  A
C47          C48   1.377       .  A
C47          H59   1.082       .  S
C48          H60   1.082       .  S
C49          C50   1.377       .  A
C49          H61   1.082       .  S
C50          H62   1.082       .  S
C51          C52   1.373       .  A
C51          H63   1.082       .  S
C52          H64   1.082       .  S
C53          C54   1.373       .  A
C53          H65   1.082       .  S
C54          H66   1.082       .  S
C55         C984   1.489       .  S
C56         C993   1.490       .  S
C57        C1013   1.488       .  S
C58         C953   1.489       .  S
N69          C74   1.355   1_455  A
N69          C73   1.353       .  A
N69         H101   1.040       .  S
N70          C77   1.351       .  A
N70          C78   1.352       .  A
N71          C76   1.354   1_455  A
N71          C75   1.352       .  A
N71         H102   1.042       .  S
N72          C79   1.351       .  A
N72          C80   1.351       .  A
C73          C81   1.387       .  A
C73          C89   1.417       .  A
C74          C90   1.417       .  A
C74          C82   1.387       .  A
C75          C83   1.385       .  A
C75          C92   1.412       .  A
C76          C91   1.418       .  A
C76          C84   1.388       .  A
C77          C89   1.414       .  A
C77          C85   1.387       .  A
C78          C92   1.412       .  A
C78          C86   1.385       .  A
C79          C87   1.385       .  A
C79          C90   1.412       .  A
C80          C88   1.388       .  A
C80          C91   1.416       .  A
C81          C82   1.379   1_455  A
C81          H93   1.082       .  S
C82          H94   1.082       .  S
C83          C84   1.379   1_455  A
C83          H95   1.082       .  S
C84          H96   1.082       .  S
C85          C86   1.374       .  A
C85          H97   1.082       .  S
C86          H98   1.082       .  S
C87          C88   1.374       .  A
C87          H99   1.082       .  S
C88         H100   1.082       .  S
C89         C873   1.489       .  S
C90         C933   1.493       .  S
C91         C913   1.499       .  S
C92         C893   1.489       .  S
C103        C104   1.403       .  A
C103        C108   1.406       .  A
C103       C1064   1.493       .  S
C104        C105   1.399       .  A
C104        H109   1.082       .  S
C105        C106   1.403       .  A
C105        C924   1.486       .  S
C106        C107   1.409       .  A
C106        H110   1.083       .  S
C107        C108   1.410       .  A
C107        C457   1.482       .  S
C108        H111   1.082       .  S
C112        C113   1.402       .  A
C112        C117   1.403       .  A
C112        C904   1.484       .  S
C113        C114   1.402       .  A
C113        H118   1.084       .  S
C114        C115   1.408       .  A
C114        C964   1.486       .  S
C115        C116   1.412       .  A
C115        H119   1.084       .  S
C116        C117   1.409       .  A
C116        C456   1.486       .  S
C117        H120   1.084       .  S
N121        C126   1.355   1_455  A
N121        C125   1.353       .  A
N121        H153   1.039   1_545  S
N122        C129   1.351       .  A
N122        C130   1.353       .  A
N123        C128   1.351   1_455  A
N123        C127   1.354       .  A
N123        H154   1.042       .  S
N124        C131   1.351       .  A
N124        C132   1.350   1_545  A
C125        C133   1.388       .  A
C125        C141   1.418       .  A
C126        C142   1.417       .  A
C126        C134   1.386       .  A
C127        C135   1.388       .  A
C127        C144   1.417       .  A
C128        C143   1.411       .  A
C128        C136   1.386       .  A
C129        C141   1.414   1_565  A
C129        C137   1.386       .  A
C130        C144   1.418       .  A
C130        C138   1.387       .  A
C131        C139   1.386   1_545  A
C131        C142   1.413       .  A
C132        C140   1.386       .  A
C132        C143   1.411       .  A
C133        C134   1.379   1_455  A
C133        H145   1.082       .  S
C134        H146   1.082       .  S
C135        C136   1.378   1_455  A
C135        H147   1.082       .  S
C136        H148   1.082       .  S
C137        C138   1.375       .  A
C137        H149   1.082       .  S
C138        H150   1.082       .  S
C139        C140   1.375       .  A
C139        H151   1.082       .  S
C140        H152   1.082       .  S
C141        C833   1.487       .  S
C142        C824   1.492       .  S
C143        C793   1.484       .  S
C144        C864   1.504       .  S
C155        C156   1.406       .  A
C155        C160   1.403       .  A
C155       C1024   1.486       .  S
C156        C157   1.410       .  A
C156        H161   1.083       .  S
C157        C158   1.409       .  A
C157        C458   1.484       .  S
C158        C159   1.403       .  A
C158        H162   1.084       .  S
C159        C160   1.402       .  A
C159        C844   1.482       .  S
C160        H163   1.084       .  S
C164        C165   1.402       .  A
C164        C169   1.407       .  A
C164        C813   1.484       .  S
C165        C166   1.402       .  A
C165        H170   1.084       .  S
C166        C167   1.404       .  A
C166       C1073   1.482       .  S
C167        C168   1.409       .  A
C167        H171   1.084       .  S
C168        C169   1.411       .  A
C168        C455   1.485       .  S
C169        H172   1.084       .  S
N173        C178   1.354       .  A
N173        C177   1.354       .  A
N173        H205   1.038       .  S
N174        C181   1.351       .  A
N174        C182   1.351   1_556  A
N175        C180   1.352       .  A
N175        C179   1.352       .  A
N175        H206   1.037       .  S
N176        C183   1.351   1_554  A
N176        C184   1.351       .  A
C177        C185   1.387       .  A
C177        C193   1.416       .  A
C178        C194   1.417       .  A
C178        C186   1.387       .  A
C179        C187   1.388       .  A
C179        C196   1.415       .  A
C180        C195   1.413       .  A
C180        C188   1.387       .  A
C181        C193   1.413       .  A
C181        C189   1.386       .  A
C182        C196   1.413       .  A
C182        C190   1.386       .  A
C183        C191   1.386       .  A
C183        C194   1.413       .  A
C184        C192   1.386       .  A
C184        C195   1.412       .  A
C185        C186   1.377       .  A
C185        H197   1.082       .  S
C186        H198   1.082       .  S
C187        C188   1.376       .  A
C187        H199   1.083       .  S
C188        H200   1.082       .  S
C189        C190   1.373   1_556  A
C189        H201   1.082       .  S
C190        H202   1.082       .  S
C191        C192   1.372   1_556  A
C191        H203   1.082       .  S
C192        H204   1.082       .  S
C193        C764   1.486       .  S
C194        C784   1.488       .  S
C195        C733   1.483       .  S
C196        C713   1.486       .  S
C207        C208   1.407       .  A
C207        C212   1.412       .  A
C207       C1044   1.508       .  S
C208        C209   1.405       .  A
C208        H213   1.080       .  S
C209        C210   1.403       .  A
C209        C773   1.489       .  S
C210        C211   1.406       .  A
C210        H214   1.083       .  S
C211        C212   1.407       .  A
C211        C472   1.483       .  S
C212        H215   1.081       .  S
C216        C217   1.403       .  A
C216        C221   1.406       .  A
C216        C753   1.482       .  S
C217        C218   1.401       .  A
C217        H222   1.084       .  S
C218        C219   1.402       .  A
C218        C973   1.480       .  S
C219        C220   1.407       .  A
C219        H223   1.084       .  S
C220        C221   1.410       .  A
C220        C469   1.483       .  S
C221        H224   1.084       .  S
N225        C230   1.353       .  A
N225        C229   1.352       .  A
N225        H257   1.039       .  S
N226        C233   1.349       .  A
N226        C234   1.349       .  A
N227        C232   1.351       .  A
N227        C231   1.353       .  A
N227        H258   1.040       .  S
N228        C235   1.351       .  A
N228        C236   1.350       .  A
C229        C237   1.387       .  A
C229        C245   1.414       .  A
C230        C246   1.417       .  A
C230        C238   1.388       .  A
C231        C239   1.387       .  A
C231        C248   1.413       .  A
C232        C247   1.412       .  A
C232        C240   1.387       .  A
C233        C245   1.410       .  A
C233        C241   1.387       .  A
C234        C248   1.409       .  A
C234        C242   1.386       .  A
C235        C243   1.387       .  A
C235        C246   1.414       .  A
C236        C244   1.385       .  A
C236        C247   1.409       .  A
C237        C238   1.376       .  A
C237        H249   1.082       .  S
C238        H250   1.082       .  S
C239        C240   1.375       .  A
C239        H251   1.082       .  S
C240        H252   1.082       .  S
C241        C242   1.373       .  A
C241        H253   1.082       .  S
C242        H254   1.082       .  S
C243        C244   1.373       .  A
C243        H255   1.082       .  S
C244        H256   1.082       .  S
C245        C704   1.479       .  S
C246        C673   1.492       .  S
C247        C633   1.482       .  S
C248        C664   1.483       .  S
N259        C264   1.354       .  A
N259        C263   1.354       .  A
N259        H291   1.036       .  S
N260        C267   1.351   1_556  A
N260        C268   1.351       .  A
N261        C266   1.353       .  A
N261        C265   1.354       .  A
N261        H292   1.037   1_545  S
N262        C269   1.353   1_545  A
N262        C270   1.353   1_554  A
C263        C271   1.388       .  A
C263        C279   1.417       .  A
C264        C280   1.417       .  A
C264        C272   1.387       .  A
C265        C273   1.387       .  A
C265        C282   1.416       .  A
C266        C281   1.417       .  A
C266        C274   1.387       .  A
C267        C279   1.413       .  A
C267        C275   1.386       .  A
C268        C282   1.412   1_565  A
C268        C276   1.386       .  A
C269        C277   1.386       .  A
C269        C280   1.416       .  A
C270        C278   1.386       .  A
C270        C281   1.415       .  A
C271        C272   1.375       .  A
C271        H283   1.082       .  S
C272        H284   1.082       .  S
C273        C274   1.374       .  A
C273        H285   1.082       .  S
C274        H286   1.082       .  S
C275        C276   1.372   1_554  A
C275        H287   1.082       .  S
C276        H288   1.082       .  S
C277        C278   1.374   1_564  A
C277        H289   1.082       .  S
C278        H290   1.082       .  S
C279        C564   1.484       .  S
C280        C573   1.489       .  S
C281        C613   1.490       .  S
C282        C604   1.486       .  S
C293        C294   1.407       .  A
C293        C298   1.404       .  A
C293       C1004   1.485       .  S
C294        C295   1.409       .  A
C294        H299   1.084       .  S
C295        C296   1.408       .  A
C295        C471   1.484       .  S
C296        C297   1.404       .  A
C296        H300   1.083       .  S
C297        C298   1.405       .  A
C297        C624   1.490       .  S
C298        H301   1.084       .  S
C302        C303   1.404       .  A
C302        C307   1.398       .  A
C302        C593   1.475       .  S
C303        C304   1.409       .  A
C303        H308   1.084       .  S
C304        C305   1.408       .  A
C304        C470   1.480       .  S
C305        C306   1.403       .  A
C305        H309   1.084       .  S
C306        C307   1.401       .  A
C306       C1104   1.479       .  S
C307        H310   1.084       .  S
N311        C316   1.353       .  A
N311        C315   1.351       .  A
N311        H343   1.039       .  S
N312        C319   1.350       .  A
N312        C320   1.351       .  A
N313        C318   1.353       .  A
N313        C317   1.354       .  A
N313        H344   1.041       .  S
N314        C321   1.351       .  A
N314        C322   1.350       .  A
C315        C323   1.387       .  A
C315        C331   1.413       .  A
C316        C332   1.414       .  A
C316        C324   1.387       .  A
C317        C325   1.387       .  A
C317        C334   1.418       .  A
C318        C333   1.415       .  A
C318        C326   1.387       .  A
C319        C331   1.411       .  A
C319        C327   1.385       .  A
C320        C334   1.415       .  A
C320        C328   1.387       .  A
C321        C329   1.386       .  A
C321        C332   1.411       .  A
C322        C330   1.387       .  A
C322        C333   1.412       .  A
C323        C324   1.375       .  A
C323        H335   1.082       .  S
C324        H336   1.082       .  S
C325        C326   1.376       .  A
C325        H337   1.082       .  S
C326        H338   1.081       .  S
C327        C328   1.374       .  A
C327        H339   1.082       .  S
C328        H340   1.082       .  S
C329        C330   1.374       .  A
C329        H341   1.082       .  S
C330        H342   1.082       .  S
C331        C484   1.483       .  S
C332        C493   1.483       .  S
C333        C533   1.486       .  S
C334        C513   1.498       .  S
C345        C346   1.404       .  A
C345        C350   1.399       .  A
C345        C504   1.479       .  S
C346        C347   1.410       .  A
C346        H351   1.084       .  S
C347        C348   1.410       .  A
C347        C429   1.485       .  S
C348        C349   1.406       .  A
C348        H352   1.084       .  S
C349        C350   1.399       .  A
C349        C584   1.478       .  S
C350        H353   1.085       .  S
C354        C355   1.400       .  A
C354        C359   1.404       .  A
C354        C553   1.482       .  S
C355        C356   1.398       .  A
C355        H360   1.085       .  S
C356        C357   1.401       .  A
C356        C653   1.474       .  S
C357        C358   1.407       .  A
C357        H361   1.084       .  S
C358        C359   1.409       .  A
C358        C428   1.478       .  S
C359        H362   1.083       .  S
C363        C364   1.404       .  A
C363        C368   1.396       .  A
C363        C744   1.475       .  S
C364        C365   1.410       .  A
C364        H369   1.084       .  S
C365        C366   1.409       .  A
C365        C430   1.481       .  S
C366        C367   1.403       .  A
C366        H370   1.084       .  S
C367        C368   1.397       .  A
C367        C644   1.474       .  S
C368        H371   1.085       .  S
C372        C373   1.399       .  A
C372        C377   1.401       .  A
C372        C724   1.475       .  S
C373        C374   1.399       .  A
C373        H378   1.085       .  S
C374        C375   1.405       .  A
C374        C473   1.474       .  S
C375        C376   1.409       .  A
C375        H379   1.084       .  S
C376        C377   1.406       .  A
C376        C427   1.480       .  S
C377        H380   1.084       .  S
C381        C382   1.410       .  A
C381        C386   1.402       .  A
C381        C853   1.497       .  S
C382        C383   1.413       .  A
C382        H387   1.083       .  S
C383        C384   1.409       .  A
C383        C441   1.488       .  S
C384        C385   1.404       .  A
C384        H388   1.083       .  S
C385        C386   1.398       .  A
C385        C544   1.476       .  S
C386        H389   1.083       .  S
C390        C391   1.406       .  A
C390        C395   1.400       .  A
C390        C804   1.484       .  S
C391        C392   1.407       .  A
C391        H396   1.084       .  S
C392        C393   1.407       .  A
C392        C443   1.479       .  S
C393        C394   1.403       .  A
C393        H397   1.084       .  S
C394        C395   1.398       .  A
C394        C693   1.475       .  S
C395        H398   1.084       .  S
C399        C400   1.410       .  A
C399        C404   1.404       .  A
C399        C684   1.494       .  S
C400        C401   1.409       .  A
C400        H405   1.082       .  S
C401        C402   1.413       .  A
C401        C442   1.491       .  S
C402        C403   1.406       .  A
C402        H406   1.083       .  S
C403        C404   1.399       .  A
C403        C944   1.483       .  S
C404        H407   1.084       .  S
C408        C409   1.398       .  A
C408        C413   1.396       .  A
C408        C884   1.475       .  S
C409        C410   1.409       .  A
C409        H414   1.083       .  S
C410        C411   1.416       .  A
C410        C524   1.507       .  S
C411        C412   1.413       .  A
C411        H415   1.080       .  S
C412        C413   1.404       .  A
C412        C444   1.487       .  S
C413        H416   1.084       .  S
O417       Cu425   2.007   1_455  S
O417        C427   1.278       .  A
O418       Cu425   2.006       .  S
O418        C428   1.278       .  A
O419       Cu425   2.024   1_455  S
O419        C429   1.280       .  A
O420       Cu425   2.017       .  S
O420        C430   1.279       .  A
O421       Cu426   2.011       .  S
O421        C430   1.278       .  A
O422       Cu426   2.016   1_455  S
O422        C429   1.279       .  A
O423       Cu426   2.011       .  S
O423        C428   1.279       .  A
O424       Cu426   2.015   1_455  S
O424        C427   1.278       .  A
Cu425      Cu426   2.371       .  S
O431       Cu439   2.010       .  S
O431        C441   1.278       .  A
O432       Cu439   2.010       .  S
O432        C442   1.277       .  A
O433       Cu439   2.012       .  S
O433        C443   1.279       .  A
O434       Cu439   2.014       .  S
O434        C444   1.280       .  A
O435       Cu440   2.021       .  S
O435        C444   1.278       .  A
O436       Cu440   2.014       .  S
O436        C443   1.278       .  A
O437       Cu440   2.037       .  S
O437        C442   1.283       .  A
O438       Cu440   2.033       .  S
O438        C441   1.281       .  A
Cu439      Cu440   2.369       .  S
O445       Cu453   2.019       .  S
O445        C455   1.279       .  A
O446       Cu453   2.018       .  S
O446        C456   1.280       .  A
O447       Cu453   2.007       .  S
O447        C457   1.278       .  A
O448       Cu453   2.011       .  S
O448        C458   1.278       .  A
O449       Cu454   2.019       .  S
O449        C458   1.279       .  A
O450       Cu454   2.015       .  S
O450        C457   1.279       .  A
O451       Cu454   2.023       .  S
O451        C456   1.279       .  A
O452       Cu454   2.019       .  S
O452        C455   1.280       .  A
Cu453      Cu454   2.370       .  S
O459       Cu467   2.018   1_455  S
O459        C469   1.279       .  A
O460       Cu467   2.017       .  S
O460        C470   1.279       .  A
O461       Cu467   2.014   1_455  S
O461        C471   1.279       .  A
O462       Cu467   2.011       .  S
O462        C472   1.278       .  A
O463       Cu468   2.019       .  S
O463        C472   1.280       .  A
O464       Cu468   2.023   1_455  S
O464        C471   1.279       .  A
O465       Cu468   2.012       .  S
O465        C470   1.278       .  A
O466       Cu468   2.012   1_455  S
O466        C469   1.279       .  A
Cu467      Cu468   2.371       .  S
C473        C474   1.408       .  A
C473        C478   1.402       .  A
C474        C475   1.400       .  A
C474       Br490   1.918       .  S
C475        C476   1.404       .  A
C475        H479   1.084       .  S
C476        C477   1.408       .  A
C476        C480   1.477       .  S
C477        C478   1.397       .  A
C477       Br489   1.919       .  S
C478        H481   1.084       .  S
C480        C482   1.404       .  A
C480        C486   1.408       .  A
C482        C483   1.398       .  A
C482        H487   1.084       .  S
C483        C484   1.408       .  A
C483       Br491   1.919       .  S
C484        C485   1.402       .  A
C485        C486   1.398       .  A
C485        H488   1.083       .  S
C486       Br492   1.918       .  S
C493        C494   1.408       .  A
C493        C498   1.401       .  A
C494        C495   1.401       .  A
C494       Br510   1.918       .  S
C495        C496   1.403       .  A
C495        H499   1.083       .  S
C496        C497   1.407       .  A
C496        C500   1.476       .  S
C497        C498   1.397       .  A
C497       Br509   1.918       .  S
C498        H501   1.083       .  S
C500        C502   1.401       .  A
C500        C506   1.407   1_545  A
C502        C503   1.399       .  A
C502        H507   1.084       .  S
C503        C504   1.411   1_545  A
C503       Br511   1.920       .  S
C504        C505   1.403       .  A
C505        C506   1.400       .  A
C505        H508   1.083       .  S
C506       Br512   1.917       .  S
C513        C514   1.414       .  A
C513        C518   1.407       .  A
C514        C515   1.399       .  A
C514       Br530   1.922       .  S
C515        C516   1.404       .  A
C515        H519   1.083       .  S
C516        C517   1.411       .  A
C516        C520   1.487       .  S
C517        C518   1.400       .  A
C517       Br529   1.921       .  S
C518        H521   1.083       .  S
C520        C522   1.401       .  A
C520        C526   1.408       .  A
C522        C523   1.401       .  A
C522        H527   1.084       .  S
C523        C524   1.418       .  A
C523       Br531   1.911       .  S
C524        C525   1.413       .  A
C525        C526   1.399       .  A
C525        H528   1.082       .  S
C526       Br532   1.922       .  S
C533        C534   1.410       .  A
C533        C538   1.402       .  A
C534        C535   1.399       .  A
C534       Br550   1.919       .  S
C535        C536   1.402       .  A
C535        H539   1.083       .  S
C536        C537   1.409       .  A
C536        C540   1.478       .  S
C537        C538   1.398       .  A
C537       Br549   1.918       .  S
C538        H541   1.083       .  S
C540        C542   1.401       .  A
C540        C546   1.409   1_545  A
C542        C543   1.398       .  A
C542        H547   1.084       .  S
C543        C544   1.410   1_545  A
C543       Br551   1.918       .  S
C544        C545   1.402       .  A
C545        C546   1.401       .  A
C545        H548   1.083       .  S
C546       Br552   1.918       .  S
C553        C554   1.412       .  A
C553        C558   1.405       .  A
C554        C555   1.402       .  A
C554       Br570   1.919       .  S
C555        C556   1.402       .  A
C555        H559   1.083       .  S
C556        C557   1.405       .  A
C556        C560   1.475       .  S
C557        C558   1.396       .  A
C557       Br569   1.919       .  S
C558        H561   1.084       .  S
C560        C562   1.402       .  A
C560        C566   1.408       .  A
C562        C563   1.399       .  A
C562        H567   1.083       .  S
C563        C564   1.407       .  A
C563       Br571   1.917       .  S
C564        C565   1.403       .  A
C565        C566   1.399       .  A
C565        H568   1.083   1_565  S
C566       Br572   1.918   1_565  S
C573        C574   1.408       .  A
C573        C578   1.403   1_565  A
C574        C575   1.399       .  A
C574       Br590   1.918       .  S
C575        C576   1.404       .  A
C575        H579   1.084       .  S
C576        C577   1.411   1_565  A
C576        C580   1.484       .  S
C577        C578   1.401       .  A
C577       Br589   1.919       .  S
C578        H581   1.083       .  S
C580        C582   1.403       .  A
C580        C586   1.412       .  A
C582        C583   1.398       .  A
C582        H587   1.084       .  S
C583        C584   1.408       .  A
C583       Br591   1.920       .  S
C584        C585   1.402       .  A
C585        C586   1.402       .  A
C585        H588   1.083       .  S
C586       Br592   1.919       .  S
C593        C594   1.407       .  A
C593        C598   1.402       .  A
C594        C595   1.400       .  A
C594       Br610   1.918       .  S
C595        C596   1.404       .  A
C595        H599   1.084       .  S
C596        C597   1.408       .  A
C596        C600   1.479       .  S
C597        C598   1.399       .  A
C597       Br609   1.918   1_545  S
C598        H601   1.084       .  S
C600        C602   1.404       .  A
C600        C606   1.408       .  A
C602        C603   1.399   1_545  A
C602        H607   1.083   1_545  S
C603        C604   1.407   1_565  A
C603       Br611   1.918       .  S
C604        C605   1.403       .  A
C605        C606   1.399       .  A
C605        H608   1.083       .  S
C606       Br612   1.918       .  S
C613        C614   1.408       .  A
C613        C618   1.404       .  A
C614        C615   1.398       .  A
C614       Br630   1.919   1_545  S
C615        C616   1.404       .  A
C615        H619   1.084       .  S
C616        C617   1.411       .  A
C616        C620   1.485       .  S
C617        C618   1.403       .  A
C617       Br629   1.918       .  S
C618        H621   1.083       .  S
C620        C622   1.402       .  A
C620        C626   1.409       .  A
C622        C623   1.401       .  A
C622        H627   1.083       .  S
C623        C624   1.415       .  A
C623       Br631   1.920       .  S
C624        C625   1.406       .  A
C625        C626   1.400       .  A
C625        H628   1.084       .  S
C626       Br632   1.920       .  S
C633        C634   1.408       .  A
C633        C638   1.402       .  A
C634        C635   1.398       .  A
C634       Br650   1.918       .  S
C635        C636   1.404       .  A
C635        H639   1.084       .  S
C636        C637   1.407       .  A
C636        C640   1.475       .  S
C637        C638   1.397       .  A
C637       Br649   1.918       .  S
C638        H641   1.084       .  S
C640        C642   1.403       .  A
C640        C646   1.407       .  A
C642        C643   1.399       .  A
C642        H647   1.083       .  S
C643        C644   1.408       .  A
C643       Br651   1.918       .  S
C644        C645   1.403       .  A
C645        C646   1.396       .  A
C645        H648   1.084       .  S
C646       Br652   1.920       .  S
C653        C654   1.409       .  A
C653        C658   1.403   1_565  A
C654        C655   1.400       .  A
C654       Br670   1.918       .  S
C655        C656   1.403   1_565  A
C655        H659   1.083       .  S
C656        C657   1.407       .  A
C656        C660   1.475       .  S
C657        C658   1.395       .  A
C657       Br669   1.919       .  S
C658        H661   1.084       .  S
C660        C662   1.401       .  A
C660        C666   1.409       .  A
C662        C663   1.397       .  A
C662        H667   1.083       .  S
C663        C664   1.409       .  A
C663       Br671   1.919       .  S
C664        C665   1.402       .  A
C665        C666   1.398       .  A
C665        H668   1.083       .  S
C666       Br672   1.920       .  S
C673        C674   1.410       .  A
C673        C678   1.402       .  A
C674        C675   1.400       .  A
C674       Br690   1.920       .  S
C675        C676   1.407       .  A
C675        H679   1.083       .  S
C676        C677   1.416       .  A
C676        C680   1.491       .  S
C677        C678   1.397       .  A
C677       Br689   1.922       .  S
C678        H681   1.084       .  S
C680        C682   1.404       .  A
C680        C686   1.413       .  A
C682        C683   1.398       .  A
C682        H687   1.083       .  S
C683        C684   1.411       .  A
C683       Br691   1.911       .  S
C684        C685   1.408       .  A
C685        C686   1.399       .  A
C685        H688   1.083       .  S
C686       Br692   1.921       .  S
C693        C694   1.409   1_565  A
C693        C698   1.403       .  A
C694        C695   1.397       .  A
C694       Br710   1.919       .  S
C695        C696   1.402       .  A
C695        H699   1.084       .  S
C696        C697   1.407   1_545  A
C696        C700   1.474       .  S
C697        C698   1.399       .  A
C697       Br709   1.918       .  S
C698        H701   1.083       .  S
C700        C702   1.404       .  A
C700        C706   1.407       .  A
C702        C703   1.399       .  A
C702        H707   1.083       .  S
C703        C704   1.407       .  A
C703       Br711   1.918       .  S
C704        C705   1.401       .  A
C705        C706   1.396       .  A
C705        H708   1.083       .  S
C706       Br712   1.918       .  S
C713        C714   1.409       .  A
C713        C718   1.402       .  A
C714        C715   1.400       .  A
C714       Br730   1.918       .  S
C715        C716   1.404       .  A
C715        H719   1.083       .  S
C716        C717   1.408       .  A
C716        C720   1.476       .  S
C717        C718   1.396       .  A
C717       Br729   1.919       .  S
C718        H721   1.084       .  S
C720        C722   1.403       .  A
C720        C726   1.408       .  A
C722        C723   1.398       .  A
C722        H727   1.084       .  S
C723        C724   1.409       .  A
C723       Br731   1.920       .  S
C724        C725   1.402       .  A
C725        C726   1.397       .  A
C725        H728   1.084       .  S
C726       Br732   1.918       .  S
C733        C734   1.408       .  A
C733        C738   1.402       .  A
C734        C735   1.398       .  A
C734       Br750   1.919       .  S
C735        C736   1.403       .  A
C735        H739   1.084       .  S
C736        C737   1.407       .  A
C736        C740   1.476       .  S
C737        C738   1.399       .  A
C737       Br749   1.917       .  S
C738        H741   1.083       .  S
C740        C742   1.404       .  A
C740        C746   1.406       .  A
C742        C743   1.400       .  A
C742        H747   1.083       .  S
C743        C744   1.408       .  A
C743       Br751   1.918       .  S
C744        C745   1.404       .  A
C745        C746   1.397       .  A
C745        H748   1.084       .  S
C746       Br752   1.919       .  S
C753        C754   1.410       .  A
C753        C758   1.403       .  A
C754        C755   1.400       .  A
C754       Br770   1.919       .  S
C755        C756   1.404       .  A
C755        H759   1.083       .  S
C756        C757   1.411       .  A
C756        C760   1.486       .  S
C757        C758   1.402       .  A
C757       Br769   1.919       .  S
C758        H761   1.083       .  S
C760        C762   1.405       .  A
C760        C766   1.411       .  A
C762        C763   1.399       .  A
C762        H767   1.083       .  S
C763        C764   1.407       .  A
C763       Br771   1.918       .  S
C764        C765   1.403       .  A
C765        C766   1.402       .  A
C765        H768   1.083       .  S
C766       Br772   1.919       .  S
C773        C774   1.414       .  A
C773        C778   1.406       .  A
C774        C775   1.405       .  A
C774       Br790   1.918       .  S
C775        C776   1.404       .  A
C775        H779   1.083       .  S
C776        C777   1.404       .  A
C776        C780   1.478       .  S
C777        C778   1.395       .  A
C777       Br789   1.920       .  S
C778        H781   1.083       .  S
C780        C782   1.403       .  A
C780        C786   1.407       .  A
C782        C783   1.400       .  A
C782        H787   1.083       .  S
C783        C784   1.410       .  A
C783       Br791   1.919       .  S
C784        C785   1.403       .  A
C785        C786   1.400       .  A
C785        H788   1.083       .  S
C786       Br792   1.917       .  S
C793        C794   1.408       .  A
C793        C798   1.404       .  A
C794        C795   1.398       .  A
C794       Br810   1.918   1_565  S
C795        C796   1.403       .  A
C795        H799   1.084       .  S
C796        C797   1.407       .  A
C796        C800   1.475       .  S
C797        C798   1.399       .  A
C797       Br809   1.919       .  S
C798        H801   1.084       .  S
C800        C802   1.400       .  A
C800        C806   1.406       .  A
C802        C803   1.397       .  A
C802        H807   1.084       .  S
C803        C804   1.415       .  A
C803       Br811   1.922       .  S
C804        C805   1.406       .  A
C805        C806   1.399       .  A
C805        H808   1.083       .  S
C806       Br812   1.918       .  S
C813        C814   1.410       .  A
C813        C818   1.403       .  A
C814        C815   1.402       .  A
C814       Br830   1.918   1_545  S
C815        C816   1.405       .  A
C815        H819   1.083       .  S
C816        C817   1.410       .  A
C816        C820   1.487       .  S
C817        C818   1.402       .  A
C817       Br829   1.918       .  S
C818        H821   1.083       .  S
C820        C822   1.405       .  A
C820        C826   1.411       .  A
C822        C823   1.402       .  A
C822        H827   1.083       .  S
C823        C824   1.410       .  A
C823       Br831   1.918       .  S
C824        C825   1.403       .  A
C825        C826   1.401       .  A
C825        H828   1.083   1_545  S
C826       Br832   1.919   1_545  S
C833        C834   1.409       .  A
C833        C838   1.402       .  A
C834        C835   1.402       .  A
C834       Br850   1.918       .  S
C835        C836   1.403       .  A
C835        H839   1.083       .  S
C836        C837   1.408       .  A
C836        C840   1.480       .  S
C837        C838   1.399       .  A
C837       Br849   1.918   1_545  S
C838        H841   1.083   1_545  S
C840        C842   1.401       .  A
C840        C846   1.408       .  A
C842        C843   1.398       .  A
C842        H847   1.084       .  S
C843        C844   1.410       .  A
C843       Br851   1.920       .  S
C844        C845   1.405       .  A
C845        C846   1.403       .  A
C845        H848   1.083       .  S
C846       Br852   1.918       .  S
C853        C854   1.416       .  A
C853        C858   1.407       .  A
C854        C855   1.399       .  A
C854       Br870   1.922   1_565  S
C855        C856   1.404       .  A
C855        H859   1.083   1_565  S
C856        C857   1.415       .  A
C856        C860   1.498       .  S
C857        C858   1.403       .  A
C857       Br869   1.921       .  S
C858        H861   1.083       .  S
C860        C862   1.406       .  A
C860        C866   1.415       .  A
C862        C863   1.402       .  A
C862        H867   1.083       .  S
C863        C864   1.415       .  A
C863       Br871   1.922       .  S
C864        C865   1.406       .  A
C865        C866   1.400       .  A
C865        H868   1.083   1_565  S
C866       Br872   1.921   1_565  S
C873        C874   1.412       .  A
C873        C878   1.403       .  A
C874        C875   1.401       .  A
C874       Br890   1.918       .  S
C875        C876   1.403       .  A
C875        H879   1.083       .  S
C876        C877   1.408       .  A
C876        C880   1.478       .  S
C877        C878   1.397       .  A
C877       Br889   1.919       .  S
C878        H881   1.084       .  S
C880        C882   1.404       .  A
C880        C886   1.408       .  A
C882        C883   1.399       .  A
C882        H887   1.083       .  S
C883        C884   1.407       .  A
C883       Br891   1.918       .  S
C884        C885   1.403       .  A
C885        C886   1.398       .  A
C885        H888   1.084       .  S
C886       Br892   1.918       .  S
C893        C894   1.408       .  A
C893        C898   1.404       .  A
C894        C895   1.400       .  A
C894       Br910   1.918       .  S
C895        C896   1.405       .  A
C895        H899   1.083       .  S
C896        C897   1.411       .  A
C896        C900   1.486       .  S
C897        C898   1.401       .  A
C897       Br909   1.919       .  S
C898        H901   1.084       .  S
C900        C902   1.403       .  A
C900        C906   1.411       .  A
C902        C903   1.399       .  A
C902        H907   1.083       .  S
C903        C904   1.411       .  A
C903       Br911   1.920       .  S
C904        C905   1.404       .  A
C905        C906   1.402       .  A
C905        H908   1.083       .  S
C906       Br912   1.919       .  S
C913        C914   1.413       .  A
C913        C918   1.406       .  A
C914        C915   1.399       .  A
C914       Br930   1.922       .  S
C915        C916   1.407       .  A
C915        H919   1.082       .  S
C916        C917   1.414       .  A
C916        C920   1.493       .  S
C917        C918   1.397       .  A
C917       Br929   1.923       .  S
C918        H921   1.083       .  S
C920        C922   1.406       .  A
C920        C926   1.416       .  A
C922        C923   1.396       .  A
C922        H927   1.082       .  S
C923        C924   1.411       .  A
C923       Br931   1.922       .  S
C924        C925   1.404       .  A
C925        C926   1.401       .  A
C925        H928   1.083       .  S
C926       Br932   1.922       .  S
C933        C934   1.410       .  A
C933        C938   1.406       .  A
C934        C935   1.403       .  A
C934       Br950   1.919       .  S
C935        C936   1.404       .  A
C935        H939   1.083       .  S
C936        C937   1.407       .  A
C936        C940   1.483       .  S
C937        C938   1.401       .  A
C937       Br949   1.918       .  S
C938        H941   1.083       .  S
C940        C942   1.403       .  A
C940        C946   1.408       .  A
C942        C943   1.403       .  A
C942        H947   1.083       .  S
C943        C944   1.411       .  A
C943       Br951   1.918       .  S
C944        C945   1.404       .  A
C945        C946   1.401       .  A
C945        H948   1.083       .  S
C946       Br952   1.918       .  S
C953        C954   1.408       .  A
C953        C958   1.403       .  A
C954        C955   1.400       .  A
C954       Br970   1.918       .  S
C955        C956   1.404       .  A
C955        H959   1.083       .  S
C956        C957   1.410       .  A
C956        C960   1.484       .  S
C957        C958   1.402       .  A
C957       Br969   1.918       .  S
C958        H961   1.083       .  S
C960        C962   1.402       .  A
C960        C966   1.410       .  A
C962        C963   1.400       .  A
C962        H967   1.084       .  S
C963        C964   1.412       .  A
C963       Br971   1.919       .  S
C964        C965   1.405       .  A
C965        C966   1.404       .  A
C965        H968   1.083       .  S
C966       Br972   1.918       .  S
C973        C974   1.410       .  A
C973        C978   1.403       .  A
C974        C975   1.401       .  A
C974       Br990   1.919       .  S
C975        C976   1.404       .  A
C975        H979   1.083       .  S
C976        C977   1.409       .  A
C976        C980   1.483       .  S
C977        C978   1.399       .  A
C977       Br989   1.919       .  S
C978        H981   1.084       .  S
C980        C982   1.403       .  A
C980        C986   1.410       .  A
C982        C983   1.398       .  A
C982        H987   1.084       .  S
C983        C984   1.408       .  A
C983       Br991   1.919       .  S
C984        C985   1.405       .  A
C985        C986   1.402       .  A
C985        H988   1.083       .  S
C986       Br992   1.918       .  S
C993        C994   1.408       .  A
C993        C998   1.404       .  A
C994        C995   1.401       .  A
C994      Br1010   1.919       .  S
C995        C996   1.405       .  A
C995        H999   1.083       .  S
C996        C997   1.410       .  A
C996       C1000   1.485       .  S
C997        C998   1.401       .  A
C997      Br1009   1.918       .  S
C998       H1001   1.083       .  S
C1000      C1002   1.404   1_565  A
C1000      C1006   1.410       .  A
C1002      C1003   1.402       .  A
C1002      H1007   1.084       .  S
C1003      C1004   1.411       .  A
C1003     Br1011   1.919       .  S
C1004      C1005   1.404       .  A
C1005      C1006   1.402   1_545  A
C1005      H1008   1.083       .  S
C1006     Br1012   1.919       .  S
C1013      C1014   1.409       .  A
C1013      C1018   1.403       .  A
C1014      C1015   1.401       .  A
C1014     Br1030   1.918       .  S
C1015      C1016   1.403       .  A
C1015      H1019   1.083       .  S
C1016      C1017   1.408       .  A
C1016      C1020   1.481       .  S
C1017      C1018   1.401       .  A
C1017     Br1029   1.918       .  S
C1018      H1021   1.083       .  S
C1020      C1022   1.403   1_565  A
C1020      C1026   1.407       .  A
C1022      C1023   1.404       .  A
C1022      H1027   1.083       .  S
C1023      C1024   1.413       .  A
C1023     Br1031   1.919       .  S
C1024      C1025   1.405   1_545  A
C1025      C1026   1.398       .  A
C1025      H1028   1.084       .  S
C1026     Br1032   1.919       .  S
C1033      C1034   1.410       .  A
C1033      C1038   1.400       .  A
C1034      C1035   1.403       .  A
C1034     Br1050   1.920       .  S
C1035      C1036   1.409       .  A
C1035      H1039   1.081       .  S
C1036      C1037   1.419       .  A
C1036      C1040   1.500       .  S
C1037      C1038   1.396       .  A
C1037     Br1049   1.924       .  S
C1038      H1041   1.084       .  S
C1040      C1042   1.403       .  A
C1040      C1046   1.414       .  A
C1042      C1043   1.397       .  A
C1042      H1047   1.083       .  S
C1043      C1044   1.421       .  A
C1043     Br1051   1.924       .  S
C1044      C1045   1.413       .  A
C1045      C1046   1.403       .  A
C1045      H1048   1.081       .  S
C1046     Br1052   1.922       .  S
C1053      C1054   1.411       .  A
C1053      C1058   1.404       .  A
C1054      C1055   1.399       .  A
C1054     Br1070   1.921       .  S
C1055      C1056   1.407       .  A
C1055      H1059   1.082       .  S
C1056      C1057   1.416       .  A
C1056      C1060   1.494       .  S
C1057      C1058   1.397       .  A
C1057     Br1069   1.923       .  S
C1058      H1061   1.084       .  S
C1060      C1062   1.408       .  A
C1060      C1066   1.413       .  A
C1062      C1063   1.402       .  A
C1062      H1067   1.083       .  S
C1063      C1064   1.414       .  A
C1063     Br1071   1.922       .  S
C1064      C1065   1.407       .  A
C1065      C1066   1.395       .  A
C1065      H1068   1.083       .  S
C1066     Br1072   1.923       .  S
C1073      C1074   1.409   1_545  A
C1073      C1078   1.403       .  A
C1074      C1075   1.400       .  A
C1074     Br1090   1.918       .  S
C1075      C1076   1.404       .  A
C1075      H1079   1.083       .  S
C1076      C1077   1.410   1_565  A
C1076      C1080   1.485       .  S
C1077      C1078   1.401       .  A
C1077     Br1089   1.919       .  S
C1078      H1081   1.083       .  S
C1080      C1082   1.405       .  A
C1080      C1086   1.410       .  A
C1082      C1083   1.400       .  A
C1082      H1087   1.083       .  S
C1083      C1084   1.406       .  A
C1083     Br1091   1.917       .  S
C1084      C1085   1.403       .  A
C1085      C1086   1.402       .  A
C1085      H1088   1.083       .  S
C1086     Br1092   1.919       .  S
C1093      C1094   1.407       .  A
C1093      C1098   1.403       .  A
C1094      C1095   1.398       .  A
C1094     Br1110   1.918       .  S
C1095      C1096   1.403       .  A
C1095      H1099   1.083       .  S
C1096      C1097   1.406       .  A
C1096      C1100   1.474       .  S
C1097      C1098   1.399       .  A
C1097     Br1109   1.918       .  S
C1098      H1101   1.083       .  S
C1100      C1102   1.400       .  A
C1100      C1106   1.407   1_565  A
C1102      C1103   1.397       .  A
C1102      H1107   1.084       .  S
C1103      C1104   1.411   1_565  A
C1103     Br1111   1.920       .  S
C1104      C1105   1.404       .  A
C1105      C1106   1.400       .  A
C1105      H1108   1.083       .  S
C1106     Br1112   1.917       .  S
