geometry optimzed in LAMMPS
_audit_creation_date              2020-11-30 
_audit_creation_method            'lammps2cif' 
_symmetry_space_group_name_H-M    'P1' 
_symmetry_Int_Tables_number       1 
_symmetry_cell_setting            triclinic 
loop_ 
_symmetry_equiv_pos_as_xyz 
  x,y,z 
_cell_length_a                    25.90426745 
_cell_length_b                    26.041966580519617 
_cell_length_c                    25.957003434852624 
_cell_angle_alpha                 90.00064226346454 
_cell_angle_beta                  89.96485502248811 
_cell_angle_gamma                 89.99772550292263 
loop_ 
_atom_site_label 
_atom_site_type_symbol 
_atom_site_fract_x 
_atom_site_fract_y 
_atom_site_fract_z 
_atom_site_charge 
O1          O  0.58596906  0.72904919  0.69246444    -0.78800
C2          C  0.72472272  0.74702737  0.58989962     0.82200
O3          O  0.58242288  0.63283091  0.52572994    -0.79900
O4          O  0.72716844  0.56826636  0.58968160    -0.81400
O5          O  0.70234121  0.58371758  0.73707052    -0.81200
O6          O  0.61571442  0.68667456  0.76078490    -0.79800
Zn7        Zn  0.62909941  0.70988836  0.63094611     1.55700
O8          O  0.76742636  0.61848841  0.69327399    -0.81200
Cd9        Cd  0.63810237  0.62600154  0.71436686     1.59700
Cd10       Cd  0.60487127  0.59379775  0.59506842     1.59600
O11         O  0.57148834  0.58438529  0.71446370    -0.81200
O12         O  0.64785263  0.64150451  0.64160544    -1.91700
Cd13       Cd  0.72175167  0.63557054  0.63009183     1.59900
O14         O  0.53779603  0.57053001  0.63651236    -0.81200
O15         O  0.74227122  0.70096954  0.58923777    -0.79800
C16         C  0.57749315  0.68163739  0.52429891     0.82700
C17         C  0.58489268  0.71901249  0.74081503     0.82300
O18         O  0.68785222  0.75992069  0.61945593    -0.78800
C19         C  0.75033562  0.58545112  0.72502358     0.83200
O20         O  0.59168385  0.70926462  0.56263410    -0.78900
C21         C  0.53525599  0.56772901  0.68564255     0.83300
C22         C  0.70063072  0.52984894  0.57415899     0.83600
O23         O  0.65133142  0.52913688  0.57679990    -0.81300
O24         O  0.80052715  0.57950002  0.27720781    -0.78800
C25         C  0.91224494  0.71562367  0.26250808     0.82200
O26         O  0.97230908  0.57805854  0.36818074    -0.79900
O27         O  0.89943894  0.71549078  0.44198549    -0.81400
O28         O  0.75998971  0.69541537  0.42146450    -0.81200
O29         O  0.73431598  0.60697545  0.32463665    -0.79800
Zn30       Zn  0.86297579  0.62311732  0.29486596     1.55700
O31         O  0.80194523  0.75780843  0.38066562    -0.81200
Cd32       Cd  0.78279126  0.62947649  0.38296271     1.59700
Cd33       Cd  0.90357916  0.59713966  0.41018371     1.59600
O34         O  0.78525412  0.56464126  0.42723027    -0.81200
O35         O  0.85462005  0.63910495  0.36414130    -1.91700
Cd36       Cd  0.86602269  0.71166406  0.37101498     1.59900
O37         O  0.86419836  0.53005689  0.43288675    -0.81200
O38         O  0.91241338  0.73063659  0.30950702    -0.79800
C39         C  0.97073106  0.57348479  0.31917515     0.82700
C40         C  0.75297553  0.57686710  0.29106008     0.82300
O41         O  0.87976090  0.68250336  0.24658352    -0.78800
C42         C  0.77070703  0.74309208  0.41536153     0.83200
O43         O  0.93047249  0.58660923  0.29396438    -0.78900
C44         C  0.81562239  0.52850127  0.44110868     0.83300
C45         C  0.91631557  0.68913881  0.47993917     0.83600
O46         O  0.91972575  0.64026559  0.47775967    -0.81300
O47         O  0.93414110  0.47695369  0.17840567    -0.78800
C48         C  0.81985503  0.48817960  0.04977065     0.82200
O49         O  0.77262879  0.37110415  0.20331467    -0.79900
O50         O  0.81946243  0.31144728  0.05089786    -0.81400
O51         O  0.97526581  0.32977219  0.06904955    -0.81200
O52         O  0.00073367  0.43161537  0.14927109    -0.79800
Zn53       Zn  0.86929965  0.45187179  0.14508525     1.55700
O54         O  0.92403499  0.35924307  0.00675154    -0.81200
Cd55       Cd  0.95377247  0.36931991  0.13412209     1.59700
Cd56       Cd  0.83747686  0.33105884  0.17257229     1.59600
O57         O  0.96083643  0.32731798  0.20026997    -0.81200
O58         O  0.87968850  0.38220647  0.12800153    -1.91700
Cd59       Cd  0.86293003  0.37661918  0.05546651     1.59900
O60         O  0.88515021  0.30512697  0.23500121    -0.81200
O61         O  0.82335932  0.44183892  0.03366024    -0.79800
C62         C  0.77282998  0.41984183  0.20904098     0.82700
C63         C  0.98268604  0.46805131  0.17619062     0.82300
O64         O  0.84334184  0.50258787  0.09019238    -0.78800
C65         C  0.96088147  0.33081413  0.02193154     0.83200
O66         O  0.80914234  0.44759676  0.19096937    -0.78900
C67         C  0.93458348  0.30666139  0.23636532     0.83300
C68         C  0.80462277  0.27195709  0.07606850     0.83600
O69         O  0.81133549  0.26844941  0.12488339    -0.81300
C70         C  0.73766238  0.59689918  0.99746346     0.79900
N71         N  0.70356454  0.56727101  0.96913758    -0.78400
C72         C  0.70900426  0.51489836  0.96883930     0.82300
N73         N  0.74782977  0.49378609  0.99514133    -0.78400
C74         C  0.78173468  0.52082407  0.02268741     0.82400
N75         N  0.77691517  0.57320680  0.02462277    -0.80100
C76         C  0.09201653  0.52188859  0.25405024     0.79900
N77         N  0.06307054  0.54715895  0.29131019    -0.78400
C78         C  0.01008564  0.54694067  0.28719747     0.82300
N79         N  0.98835427  0.52286744  0.24738178    -0.78400
C80         C  0.01499034  0.49769846  0.21160550     0.82400
N81         N  0.06736785  0.49608304  0.21497029    -0.80100
O82         O  0.57880026  0.27188592  0.80469211    -0.78800
C83         C  0.70850772  0.26216979  0.92401253     0.82200
O84         O  0.55890046  0.37030863  0.96965360    -0.79900
O85         O  0.70829229  0.43934091  0.92173362    -0.81400
O86         O  0.69714538  0.41591287  0.76631232    -0.81200
O87         O  0.60664288  0.31922629  0.73907141    -0.79800
Zn88       Zn  0.61607492  0.29470007  0.86934071     1.55700
O89         O  0.75694045  0.38559510  0.81995614    -0.81200
Cd90       Cd  0.62954795  0.37869714  0.78747361     1.59700
Cd91       Cd  0.58808191  0.41221743  0.90552028     1.59600
O92         O  0.56638399  0.42453660  0.78353331    -0.81200
O93         O  0.63374924  0.36443708  0.86123848    -1.91700
Cd94       Cd  0.70555849  0.37239711  0.88005113     1.59900
O95         O  0.52643635  0.43773486  0.85889917    -0.81200
O96         O  0.72341646  0.30899143  0.92331524    -0.79800
C97         C  0.55348002  0.32159932  0.96803181     0.82700
C98         C  0.57843326  0.28338080  0.75667850     0.82300
O99         O  0.67272066  0.24618051  0.89449894    -0.78800
C100        C  0.74390490  0.41387676  0.78223565     0.83200
O101        O  0.57101938  0.29525750  0.93052601    -0.78900
C102        C  0.52875633  0.44206937  0.80992890     0.83300
C103        C  0.68053011  0.47678624  0.93746208     0.83600
O104        O  0.63149517  0.47673216  0.93196563    -0.81300
O105        O  0.46915971  0.16931810  0.93370314    -0.78800
C106        C  0.48405152  0.03156074  0.82732103     0.82200
O107        O  0.37747952  0.18429840  0.76791379    -0.79900
O108        O  0.30685457  0.03334686  0.81932060    -0.81400
O109        O  0.32751146  0.05350436  0.97681099    -0.81200
O110        O  0.42109525  0.14301460  0.99950424    -0.79800
Zn111      Zn  0.44908771  0.12774010  0.87141719     1.55700
O112        O  0.35536903  0.99051794  0.92585615    -0.81200
Cd113      Cd  0.36239733  0.11948853  0.95139631     1.59700
Cd114      Cd  0.33213821  0.15653544  0.83181466     1.59600
O115        O  0.31529336  0.18174283  0.95369255    -0.81200
O116        O  0.37851800  0.11156988  0.87841372    -1.91700
Cd117      Cd  0.37154697  0.03840520  0.86401220     1.59900
O118        O  0.30200970  0.21888916  0.87723215    -0.81200
O119        O  0.43700890  0.01694509  0.82503959    -0.79800
C120        C  0.42688389  0.18627331  0.76857179     0.82700
C121        C  0.45648942  0.17129272  0.98134510     0.82300
O122        O  0.49803804  0.06838379  0.85631451    -0.78800
C123        C  0.32934342  0.00608432  0.96426255     0.83200
O124        O  0.45237457  0.16810173  0.80647248    -0.78900
C125        C  0.29703036  0.21817786  0.92638798     0.83300
C126        C  0.27058713  0.06052642  0.80023872     0.83600
O127        O  0.27048464  0.10964973  0.80341124    -0.81300
C128        C  0.49889221  0.25942454  0.08760038     0.79900
N129        N  0.52326744  0.29632471  0.05807646    -0.78400
C130        C  0.52367986  0.29110099  0.00555047     0.82300
N131        N  0.50230292  0.24936826  0.98439677    -0.78400
C132        C  0.47971116  0.21249815  0.01201921     0.82400
N133        N  0.47684836  0.21752493  0.06417526    -0.80100
C134        C  0.49193001  0.23951812  0.64840952     0.79900
N135        N  0.53401024  0.26109839  0.67254807    -0.78400
C136        C  0.53856970  0.25818924  0.72487948     0.82300
N137        N  0.50136421  0.23508690  0.75195111    -0.78400
C138        C  0.45926413  0.21431742  0.73047182     0.82400
N139        N  0.45404970  0.21582700  0.67776310    -0.80100
C140        C  0.59941080  0.99197774  0.74928586     0.79900
N141        N  0.57146455  0.01027707  0.79035880    -0.78400
C142        C  0.51886414  0.01027278  0.78813589     0.82300
N143        N  0.49535597  0.99459547  0.74494045    -0.78400
C144        C  0.52148941  0.97781504  0.70369029     0.82400
N145        N  0.57418201  0.97543906  0.70570170    -0.80100
C146        C  0.89312430  0.97635823  0.24234813     0.79900
N147        N  0.92091280  0.00272641  0.20590230    -0.78400
C148        C  0.97321668  0.99733678  0.20397013     0.82300
N149        N  0.99691212  0.96815460  0.23902258    -0.78400
C150        C  0.97137884  0.94369730  0.27633683     0.82400
N151        N  0.91864086  0.94689038  0.27835194    -0.80100
C152        C  0.23914227  0.33408307  0.99259123     0.79900
N153        N  0.21364853  0.30805822  0.03164581    -0.78400
C154        C  0.21417670  0.25535609  0.03197791     0.82300
N155        N  0.23880984  0.23061658  0.99417170    -0.78400
C156        C  0.26434740  0.25410472  0.95620731     0.82400
N157        N  0.26555587  0.30662442  0.95534188    -0.80100
C158        C  0.25480657  0.89306922  0.01376336     0.79900
N159        N  0.21263405  0.91890973  0.03282936    -0.78400
C160        C  0.21093160  0.97120744  0.02929408     0.82300
N161        N  0.25101828  0.99640785  0.00899692    -0.78400
C162        C  0.29266905  0.97230515  0.99049596     0.82400
N163        N  0.29447819  0.91999464  0.99134902    -0.80100
C164        C  0.33661601  0.00573154  0.26887604     0.79900
N165        N  0.30886804  0.04291314  0.24273016    -0.78400
C166        C  0.25617913  0.03962013  0.24060650     0.82300
N167        N  0.23293241  0.99956157  0.26285465    -0.78400
C168        C  0.25799388  0.96156699  0.28660246     0.82400
N169        N  0.31082894  0.96404445  0.29002017    -0.80100
C170        C  0.00045457  0.24929410  0.90971948     0.79900
N171        N  0.01623244  0.20652701  0.93617490    -0.78400
C172        C  0.01317658  0.20599345  0.98852230     0.82300
N173        N  0.99690219  0.24808183  0.01337324    -0.78400
C174        C  0.98206030  0.29067183  0.98854709     0.82400
N175        N  0.98249897  0.29141417  0.93602447    -0.80100
C176        C  0.00531452  0.24940368  0.35057993     0.79900
N177        N  0.04060063  0.22073251  0.32278627    -0.78400
C178        C  0.03829710  0.22088422  0.27009824     0.82300
N179        N  0.00129429  0.24774427  0.24676423    -0.78400
C180        C  0.96607337  0.27535198  0.27190524     0.82400
N181        N  0.96773636  0.27709538  0.32470776    -0.80100
O182        O  0.05627832  0.01784514  0.17620981    -0.78800
C183        C  0.17038239  0.00458697  0.04994863     0.82200
O184        O  0.22433165  0.11754235  0.19770887    -0.79900
O185        O  0.16771090  0.18069726  0.04245379    -0.81400
O186        O  0.02126395  0.16872353  0.06965144    -0.81200
O187        O  0.99226612  0.06588053  0.14596529    -0.79800
Zn188      Zn  0.12217943  0.04211109  0.14448833     1.55700
O189        O  0.06359561  0.13109332  0.00535545    -0.81200
Cd190      Cd  0.04166858  0.12661388  0.13292673     1.59700
Cd191      Cd  0.16086988  0.16054630  0.16636086     1.59600
O192        O  0.03864377  0.16771044  0.19949535    -0.81200
O193        O  0.11457441  0.11095153  0.12491149    -1.91700
Cd194      Cd  0.12673034  0.11471597  0.05123919     1.59900
O195        O  0.11650134  0.18927807  0.22959936    -0.81200
O196        O  0.16749057  0.04985685  0.03097508    -0.79800
C197        C  0.22043935  0.06949874  0.20754648     0.82700
C198        C  0.00816364  0.02799578  0.17217109     0.82300
O199        O  0.14554990  0.99185916  0.09005366    -0.78800
C200        C  0.03217976  0.16479247  0.02181561     0.83200
O201        O  0.18205483  0.04327033  0.19147773    -0.78900
C202        C  0.06722262  0.18854067  0.23360068     0.83300
C203        C  0.18574045  0.21955904  0.06631799     0.83600
O204        O  0.18526967  0.22203724  0.11573037    -0.81300
O205        O  0.47960200  0.82365724  0.55314382    -0.78800
C206        C  0.48874905  0.95769142  0.66197643     0.82200
O207        O  0.38024352  0.81036498  0.71922927    -0.79900
O208        O  0.31049633  0.95645471  0.66062557    -0.81400
O209        O  0.32982832  0.92930894  0.51017773    -0.81200
O210        O  0.43293062  0.84874555  0.48596903    -0.79800
Zn211      Zn  0.45552919  0.86234636  0.61551965     1.55700
O212        O  0.36192761  0.99463299  0.55549103    -0.81200
Cd213      Cd  0.37154114  0.86658628  0.53360864     1.59700
Cd214      Cd  0.33691231  0.83393866  0.65290534     1.59600
O215        O  0.33102671  0.79963600  0.53249150    -0.81200
O216        O  0.38523476  0.87718796  0.60659704    -1.91700
Cd217      Cd  0.37771837  0.95028046  0.61952369     1.59900
O218        O  0.31229381  0.76753324  0.61002987    -0.81200
O219        O  0.44173537  0.97283767  0.66134853    -0.79800
C220        C  0.42952507  0.80685696  0.71878546     0.82700
C221        C  0.46949624  0.82246302  0.50487967     0.82300
O222        O  0.50398192  0.92094619  0.63363504    -0.78800
C223        C  0.33110509  0.97704454  0.52176705     0.83200
O224        O  0.45592786  0.82254803  0.68034546    -0.78900
C225        C  0.31231083  0.76412300  0.56075588     0.83300
C226        C  0.27263098  0.93031963  0.67815590     0.83600
O227        O  0.27238812  0.88107291  0.67613865    -0.81300
O228        O  0.04735854  0.94354428  0.32476704    -0.78800
C229        C  0.16324120  0.96837366  0.45534183     0.82200
O230        O  0.22993253  0.87515019  0.31313521    -0.79900
O231        O  0.17456912  0.79007312  0.45511523    -0.81400
O232        O  0.02475251  0.80955598  0.43917603    -0.81200
O233        O  0.99731892  0.87388448  0.32997531    -0.79800
Zn234      Zn  0.11433552  0.93124124  0.36353782     1.55700
O235        O  0.07238131  0.84314396  0.50180062    -0.81200
Cd236      Cd  0.05122298  0.82825142  0.36781101     1.59700
Cd237      Cd  0.16956731  0.82143586  0.33290042     1.59600
O238        O  0.06997210  0.76546504  0.32331692    -0.81200
O239        O  0.11742567  0.86074032  0.37779970    -1.91700
Cd240      Cd  0.13219450  0.85556558  0.45087467     1.59900
O241        O  0.12578230  0.79564701  0.26697182    -0.81200
O242        O  0.17067021  0.92156435  0.46823317    -0.79800
C243        C  0.22208806  0.92372125  0.31034323     0.82700
C244        C  0.00537374  0.91947597  0.31441822     0.82300
O245        O  0.12797472  0.98068329  0.42347892    -0.78800
C246        C  0.03373667  0.81741474  0.48696474     0.83200
O247        O  0.17905189  0.94334837  0.32418786    -0.78900
C248        C  0.08367036  0.77182819  0.27652362     0.83300
C249        C  0.19599690  0.75548772  0.42762200     0.83600
O250        O  0.19736283  0.75829265  0.37827145    -0.81300
C251        C  0.97941411  0.74498748  0.59881071     0.79900
N252        N  0.00739366  0.78229325  0.57370375    -0.78400
C253        C  0.99978280  0.78974007  0.52236919     0.82300
N254        N  0.96639020  0.76002613  0.49765598    -0.78400
C255        C  0.94238143  0.72046408  0.51924247     0.82400
N256        N  0.94822581  0.71196153  0.57097721    -0.80100
C257        C  0.24184297  0.08520674  0.49002242     0.79900
N258        N  0.28608170  0.06056259  0.50509246    -0.78400
C259        C  0.28896952  0.00854616  0.50167276     0.82300
N260        N  0.24758531  0.98211135  0.48612522    -0.78400
C261        C  0.20317325  0.00473839  0.47263219     0.82400
N262        N  0.19997869  0.05716081  0.47325322    -0.80100
C263        C  0.25302773  0.64439949  0.50159228     0.79900
N264        N  0.28121699  0.67340343  0.53641008    -0.78400
C265        C  0.28229186  0.72577999  0.53121395     0.82300
N266        N  0.25716484  0.74728126  0.49199606    -0.78400
C267        C  0.22919494  0.72102537  0.45798814     0.82400
N268        N  0.22596369  0.66874030  0.46267245    -0.80100
C269        C  0.00865181  0.73519230  0.15570871     0.79900
N270        N  0.05029724  0.75116547  0.18513478    -0.78400
C271        C  0.04463066  0.75544488  0.23761293     0.82300
N272        N  0.99831655  0.74563584  0.25856966    -0.78400
C273        C  0.95725998  0.73076571  0.23119941     0.82400
N274        N  0.96223392  0.72476072  0.17929696    -0.80100
C275        C  0.15578837  0.99470263  0.73951645     0.79900
N276        N  0.18288016  0.95955382  0.70980402    -0.78400
C277        C  0.23592021  0.96119926  0.70939027     0.82300
N278        N  0.25997110  0.99712377  0.73722497    -0.78400
C279        C  0.23532488  0.03138610  0.76652322     0.82400
N280        N  0.18258637  0.03021519  0.76862728    -0.80100
C281        C  0.75170660  0.15336867  0.00922983     0.79900
N282        N  0.77582434  0.18187125  0.04732665    -0.78400
C283        C  0.77558776  0.23449353  0.04396807     0.82300
N284        N  0.75329693  0.25656751  0.00302331    -0.78400
C285        C  0.73076818  0.23010450  0.96510871     0.82400
N286        N  0.72893022  0.17792725  0.96820453    -0.80100
C287        C  0.48854585  0.75608867  0.84256587     0.79900
N288        N  0.53322307  0.73677572  0.82148055    -0.78400
C289        C  0.54178501  0.74149106  0.76990071     0.82300
N290        N  0.50569183  0.76328479  0.74053413    -0.78400
C291        C  0.46105565  0.78138862  0.75901558     0.82400
N292        N  0.45203523  0.77890599  0.81105526    -0.80100
C293        C  0.51647932  0.73397630  0.40062138     0.79900
N294        N  0.49243857  0.77546364  0.42296167    -0.78400
C295        C  0.49794628  0.78439230  0.47438036     0.82300
N296        N  0.52601982  0.75210256  0.50257683    -0.78400
C297        C  0.54897773  0.71037061  0.48345518     0.82400
N298        N  0.54491498  0.70052995  0.43134428    -0.80100
C299        C  0.74681069  0.85793521  0.49966457     0.79900
N300        N  0.73776058  0.83249223  0.54529014    -0.78400
C301        C  0.73897504  0.77999257  0.54621885     0.82300
N302        N  0.74711500  0.75425354  0.50235208    -0.78400
C303        C  0.75515877  0.77778746  0.45721562     0.82400
N304        N  0.75618957  0.83021212  0.45553525    -0.80100
C305        C  0.41679454  0.50525045  0.74363302     0.79900
N306        N  0.44218007  0.47429849  0.77839643    -0.78400
C307        C  0.49470685  0.47583132  0.78065826     0.82300
N308        N  0.52047935  0.50581387  0.74811816    -0.78400
C309        C  0.49763393  0.53551116  0.71319775     0.82400
N310        N  0.44479689  0.53646248  0.71071073    -0.80100
C311        C  0.85991102  0.49339597  0.74773154     0.79900
N312        N  0.83161898  0.45095239  0.76172873    -0.78400
C313        C  0.77896293  0.45405301  0.76338139     0.82300
N314        N  0.75586027  0.49905224  0.75341752    -0.78400
C315        C  0.78240029  0.54148889  0.74102923     0.82400
N316        N  0.83496326  0.53885288  0.73727448    -0.80100
C317        C  0.75404773  0.41427975  0.50392790     0.79900
N318        N  0.72428665  0.44104252  0.53906090    -0.78400
C319        C  0.73012510  0.49314075  0.54278213     0.82300
N320        N  0.76470598  0.51660703  0.51308233    -0.78400
C321        C  0.79240195  0.49242503  0.47742454     0.82400
N322        N  0.78690663  0.44060368  0.47151736    -0.80100
C323        C  0.65018984  0.48059231  0.25792278     0.79900
N324        N  0.68157174  0.44272129  0.23764401    -0.78400
C325        C  0.73401270  0.44947674  0.23813776     0.82300
N326        N  0.75324976  0.49361698  0.25612024    -0.78400
C327        C  0.72388303  0.53197693  0.27324888     0.82400
N328        N  0.67168978  0.52569879  0.27515936    -0.80100
O329        O  0.12057972  0.31711455  0.75711059    -0.78800
C330        C  0.24877292  0.41452708  0.71458742     0.82200
O331        O  0.03302953  0.42791057  0.63393984    -0.79900
O332        O  0.21966136  0.43170914  0.58344398    -0.81400
O333        O  0.18750753  0.23702368  0.61649597    -0.81200
O334        O  0.08702509  0.26817499  0.69521099    -0.79800
Zn335      Zn  0.13736761  0.37528984  0.70787896     1.55700
O336        O  0.23523012  0.29869732  0.58115955    -0.81200
Cd337      Cd  0.12746250  0.28670870  0.63055230     1.59700
Cd338      Cd  0.09877936  0.40359703  0.59049154     1.59600
O339        O  0.08623316  0.28319264  0.56356164    -0.81200
O340        O  0.14390053  0.35852228  0.63793270    -1.91700
Cd341      Cd  0.21678507  0.36396297  0.62280188     1.59900
O342        O  0.07458604  0.35893682  0.52500247    -0.81200
O343        O  0.26549654  0.38086407  0.68339486    -0.79800
C344        C  0.03390573  0.43145784  0.68308606     0.82700
C345        C  0.08928425  0.28254292  0.74224672     0.82300
O346        O  0.20076521  0.41684619  0.72638327    -0.78800
C347        C  0.22051357  0.25172628  0.58362595     0.83200
O348        O  0.07224069  0.41507754  0.70919331    -0.78900
C349        C  0.07028375  0.30990397  0.52546990     0.83300
C350        C  0.19307324  0.46966608  0.56700975     0.83600
O351        O  0.14364684  0.46917606  0.56817501    -0.81300
O352        O  0.60700351  0.18255663  0.24341268    -0.78800
C353        C  0.73374227  0.07903762  0.28195071     0.82200
O354        O  0.52198997  0.06663868  0.36945892    -0.79900
O355        O  0.71231077  0.06996017  0.42009148    -0.81400
O356        O  0.67615445  0.26163172  0.39011762    -0.81200
O357        O  0.57869922  0.23498718  0.30515385    -0.79800
Zn358      Zn  0.62226605  0.12244767  0.29187899     1.55700
O359        O  0.73071201  0.20001581  0.41404473    -0.81200
Cd360      Cd  0.61668709  0.21187677  0.37074963     1.59700
Cd361      Cd  0.58986957  0.09256439  0.40930086     1.59600
O362        O  0.57208579  0.21247836  0.43594346    -0.81200
O363        O  0.63314164  0.13947263  0.36166518    -1.91700
Cd364      Cd  0.70726729  0.13389251  0.37538076     1.59900
O365        O  0.56522703  0.13587720  0.47432859    -0.81200
O366        O  0.75351271  0.10959675  0.31463848    -0.79800
C367        C  0.51849107  0.06502436  0.32034294     0.82700
C368        C  0.57999497  0.22074996  0.25798350     0.82300
O369        O  0.68530299  0.08048102  0.27146286    -0.78800
C370        C  0.71504871  0.24670752  0.41576853     0.83200
O371        O  0.55495593  0.08261184  0.29199072    -0.78900
C372        C  0.55732492  0.18434072  0.47356916     0.83300
C373        C  0.68660353  0.03158731  0.43673181     0.83600
O374        O  0.63734129  0.02946832  0.43296257    -0.81300
C375        C  0.48980706  0.23989773  0.59043473     0.79900
N376        N  0.45907752  0.27490128  0.56450164    -0.78400
C377        C  0.46128544  0.27695857  0.51172790     0.82300
N378        N  0.49254353  0.24498412  0.48668116    -0.78400
C379        C  0.52276239  0.21084330  0.51005388     0.82400
N380        N  0.52236184  0.20807078  0.56271872    -0.80100
O381        O  0.37978414  0.32311471  0.24506604    -0.78800
C382        C  0.25290396  0.42330238  0.29359117     0.82200
O383        O  0.47408193  0.42440448  0.36743570    -0.79900
O384        O  0.28972673  0.43559406  0.42997477    -0.81400
O385        O  0.30861854  0.24277030  0.38004783    -0.81200
O386        O  0.41537628  0.27339112  0.30493785    -0.79800
Zn387      Zn  0.36381078  0.37979475  0.29648479     1.55700
O388        O  0.26421029  0.30465690  0.41955296    -0.81200
Cd389      Cd  0.37238298  0.28938627  0.36986448     1.59700
Cd390      Cd  0.40783709  0.40337755  0.41183956     1.59600
O391        O  0.41176678  0.28143579  0.43804354    -0.81200
O392        O  0.35842174  0.36207009  0.36570404    -1.91700
Cd393      Cd  0.28668290  0.37165631  0.38476661     1.59900
O394        O  0.42929838  0.35656737  0.47578737    -0.81200
O395        O  0.23534899  0.39511588  0.32921129    -0.79800
C396        C  0.47078412  0.43012729  0.31865518     0.82700
C397        C  0.41279269  0.28952497  0.25838919     0.82300
O398        O  0.30035060  0.42084130  0.27966658    -0.78800
C399        C  0.27512756  0.25717676  0.41275208     0.83200
O400        O  0.42984813  0.41766385  0.29430638    -0.78900
C401        C  0.42952360  0.30741209  0.47588017     0.83300
C402        C  0.31959103  0.47153378  0.44536201     0.83600
O403        O  0.36842219  0.46986598  0.43844745    -0.81300
C404        C  0.59300150  0.47718479  0.25320873     0.79900
N405        N  0.56982427  0.49942214  0.21106666    -0.78400
C406        C  0.51759352  0.49694884  0.20594523     0.82300
N407        N  0.48990460  0.47473576  0.24296944    -0.78400
C408        C  0.51038015  0.45446324  0.28551636     0.82400
N409        N  0.56299888  0.45489726  0.29131074    -0.80100
C410        C  0.48248557  0.75511265  0.89978533     0.79900
N411        N  0.49562256  0.79778344  0.92798663    -0.78400
C412        C  0.49408331  0.79592372  0.98054321     0.82300
N413        N  0.48242470  0.75156044  0.00389975    -0.78400
C414        C  0.47177983  0.70857843  0.97772602     0.82400
N415        N  0.47089829  0.70998499  0.92497968    -0.80100
O416        O  0.35106434  0.48576289  0.07951379    -0.78800
C417        C  0.48598457  0.52324165  0.16718888     0.82200
O418        O  0.27474361  0.61853200  0.19151685    -0.79900
O419        O  0.46454898  0.65830441  0.19096331    -0.81400
O420        O  0.42438306  0.63225448  0.99566197    -0.81200
O421        O  0.32842425  0.54699473  0.02446864    -0.79800
Zn422      Zn  0.37235662  0.53676705  0.13536734     1.55700
O423        O  0.47447670  0.66477960  0.05711930    -0.81200
Cd424      Cd  0.36632414  0.61239009  0.04659554     1.59700
Cd425      Cd  0.34266265  0.65544351  0.16502276     1.59600
O426        O  0.32257804  0.67700507  0.04620269    -0.81200
O427        O  0.38391399  0.60574248  0.11835044    -1.91700
Cd428      Cd  0.45757546  0.62021742  0.12217817     1.59900
O429        O  0.31948322  0.72014329  0.12058874    -0.81200
O430        O  0.50427156  0.55723607  0.13708263    -0.79800
C431        C  0.27248846  0.56985223  0.19588853     0.82700
C432        C  0.32673188  0.50029835  0.03971319     0.82300
O433        O  0.43735796  0.51457943  0.17005966    -0.78800
C434        C  0.45814999  0.66429044  0.01038974     0.83200
O435        O  0.30866245  0.54105179  0.17867867    -0.78900
C436        C  0.30998656  0.71663600  0.07238422     0.83300
C437        C  0.43914262  0.67546340  0.22951403     0.83600
O438        O  0.38971797  0.67618256  0.22961713    -0.81300
C439        C  0.25440807  0.58669429  0.50415482     0.79900
N440        N  0.29049839  0.56020123  0.47523470    -0.78400
C441        C  0.29412791  0.50804163  0.48024433     0.82300
N442        N  0.26168012  0.48394008  0.51159825    -0.78400
C443        C  0.22413031  0.50721697  0.53757472     0.82400
N444        N  0.21985197  0.55968009  0.53471333    -0.80100
O445        O  0.48345901  0.91878495  0.15467342    -0.78800
C446        C  0.51536998  0.83508925  0.01510969     0.82200
O447        O  0.61447849  0.80365106  0.22225224    -0.79900
O448        O  0.65305752  0.80864121  0.03302361    -0.81400
O449        O  0.63196077  0.00168141  0.07732636    -0.81200
O450        O  0.54646944  0.97338511  0.17417861    -0.79800
Zn451      Zn  0.53164539  0.86263856  0.12886352     1.55700
O452        O  0.65910889  0.94019255  0.02441095    -0.81200
Cd453      Cd  0.61018936  0.95079790  0.13479453     1.59700
Cd454      Cd  0.65235723  0.83289218  0.15637512     1.59600
O455        O  0.67359570  0.95108410  0.17973242    -0.81200
O456        O  0.60169028  0.87949292  0.11694587    -1.91700
Cd457      Cd  0.61441427  0.87670032  0.04324093     1.59900
O458        O  0.71681301  0.87697600  0.18168195    -0.81200
O459        O  0.54886195  0.86690771  0.99894737    -0.79800
C460        C  0.56559664  0.79836357  0.22474880     0.82700
C461        C  0.49982891  0.95820327  0.17835468     0.82300
O462        O  0.50638349  0.82927375  0.06334683    -0.78800
C463        C  0.66084259  0.98654657  0.04084275     0.83200
O464        O  0.53573516  0.81650042  0.19002298    -0.78900
C465        C  0.71324772  0.92484557  0.19203307     0.83300
C466        C  0.67239289  0.77091351  0.05789923     0.83600
O467        O  0.67448811  0.77072567  0.10719964    -0.81300
C468        C  0.73466631  0.65463837  0.99520281     0.79900
N469        N  0.76295520  0.68096786  0.95859846    -0.78400
C470        C  0.75811177  0.73317801  0.95475531     0.82300
N471        N  0.72702420  0.75771892  0.98747636    -0.78400
C472        C  0.70123793  0.73424141  0.02525675     0.82400
N473        N  0.70457966  0.68184668  0.02983143    -0.80100
O474        O  0.89486088  0.17411218  0.75174912    -0.78800
C475        C  0.76598154  0.07951046  0.71026314     0.82200
O476        O  0.98006452  0.05717825  0.63141421    -0.79900
O477        O  0.79447295  0.06539759  0.57122287    -0.81400
O478        O  0.82775009  0.25590213  0.60915328    -0.81200
O479        O  0.92668115  0.22578993  0.69116967    -0.79800
Zn480      Zn  0.87828717  0.11592056  0.70271403     1.55700
O481        O  0.77723973  0.19472018  0.57719268    -0.81200
Cd482      Cd  0.88758591  0.20561156  0.62571497     1.59700
Cd483      Cd  0.91689389  0.08677236  0.58676123     1.59600
O484        O  0.93081546  0.20840722  0.56016952    -0.81200
O485        O  0.87165962  0.13315091  0.63277239    -1.91700
Cd486      Cd  0.79855450  0.12883275  0.61587853     1.59900
O487        O  0.94478104  0.13183414  0.52371491    -0.81200
O488        O  0.74905470  0.10848139  0.67480478    -0.79800
C489        C  0.97868441  0.05326030  0.68055768     0.82700
C490        C  0.92401499  0.21085675  0.73802040     0.82300
O491        O  0.81381755  0.07879389  0.72239772    -0.78800
C492        C  0.79125467  0.24174227  0.57982193     0.83200
O493        O  0.94115141  0.07184518  0.70644607    -0.78900
C494        C  0.94843289  0.18089097  0.52344843     0.83300
C495        C  0.82072319  0.02769044  0.55414535     0.83600
O496        O  0.86985256  0.02540379  0.55899872    -0.81300
C497        C  0.65673113  0.99413878  0.75079378     0.79900
N498        N  0.68146242  0.03556950  0.72925963    -0.78400
C499        C  0.73355570  0.04033305  0.73456785     0.82300
N500        N  0.75983457  0.00380232  0.75931397    -0.78400
C501        C  0.73738894  0.96222869  0.77957097     0.82400
N502        N  0.68491685  0.95704878  0.77629239    -0.81700
O503        O  0.85656943  0.99463911  0.93028479    -0.78800
C504        C  0.98809380  0.95133779  0.82898676     0.82200
O505        O  0.76973155  0.88032519  0.81066650    -0.79900
O506        O  0.94904164  0.81156568  0.81402564    -0.81400
O507        O  0.91825704  0.84177378  0.00600491    -0.81200
O508        O  0.82341264  0.93319316  0.98009704    -0.79800
Zn509      Zn  0.87524048  0.94704926  0.87011196     1.55700
O510        O  0.97037501  0.81702829  0.94233784    -0.81200
Cd511      Cd  0.85967802  0.86630563  0.95695370     1.59700
Cd512      Cd  0.83049874  0.83249219  0.83718513     1.59600
O513        O  0.81175067  0.80382049  0.95728429    -0.81200
O514        O  0.87784638  0.87593923  0.88452549    -1.91700
Cd515      Cd  0.94996346  0.85668281  0.87729817     1.59900
O516        O  0.79930510  0.76967462  0.87934164    -0.81200
O517        O  0.00324973  0.91251059  0.85443876    -0.79800
C518        C  0.77367569  0.92914730  0.80797981     0.82700
C519        C  0.82689782  0.98043018  0.96675480     0.82300
O520        O  0.94110928  0.96667464  0.83180861    -0.78800
C521        C  0.95606726  0.81537926  0.98946853     0.83200
O522        O  0.81261646  0.95288159  0.82645225    -0.78900
C523        C  0.79355458  0.76863833  0.92824235     0.83300
C524        C  0.92215319  0.79598280  0.77600088     0.83600
O525        O  0.87352998  0.80367113  0.77362078    -0.81300
O526        O  0.10556548  0.67035484  0.74455597    -0.78800
C527        C  0.24361639  0.58220994  0.78050396     0.82200
O528        O  0.02800485  0.55535372  0.86380658    -0.79900
O529        O  0.21095584  0.55046424  0.91796515    -0.81400
O530        O  0.17766607  0.74723617  0.89307619    -0.81200
O531        O  0.07656434  0.71904549  0.80885539    -0.79800
Zn532      Zn  0.12994830  0.61315553  0.79163334     1.55700
O533        O  0.22532863  0.68256562  0.92294593    -0.81200
Cd534      Cd  0.11816095  0.69818762  0.87297447     1.59700
Cd535      Cd  0.09086536  0.58000741  0.90965092     1.59600
O536        O  0.07652828  0.69895424  0.93967233    -0.81200
O537        O  0.13548228  0.62653082  0.86302842    -1.91700
Cd538      Cd  0.20763034  0.61937410  0.87949488     1.59900
O539        O  0.06516036  0.62234840  0.97623285    -0.81200
O540        O  0.25804096  0.60956281  0.81828372    -0.79800
C541        C  0.03127268  0.55041001  0.81490667     0.82700
C542        C  0.07579946  0.70520462  0.76148861     0.82300
O543        O  0.19599661  0.57944128  0.76758287    -0.78800
C544        C  0.21223571  0.72996913  0.92312078     0.83200
O545        O  0.06945511  0.56776709  0.78925197    -0.78900
C546        C  0.06088838  0.67134642  0.97719757     0.83300
C547        C  0.18370890  0.51281118  0.93429089     0.83600
O548        O  0.13440279  0.51397505  0.93243169    -0.81300
C549        C  0.98310913  0.74174015  0.65583590     0.79900
N550        N  0.94578689  0.76472412  0.68601854    -0.78400
C551        C  0.95241855  0.76635586  0.73819804     0.82300
N552        N  0.99563899  0.74699005  0.75842710    -0.78400
C553        C  0.03320389  0.72599290  0.73039887     0.82400
N554        N  0.02731275  0.72262160  0.67826119    -0.80100
C555        C  0.91747897  0.49152640  0.74780015     0.79900
N556        N  0.94398570  0.52017701  0.78366205    -0.78400
C557        C  0.99651785  0.51819518  0.78456595     0.82300
N558        N  0.02125264  0.49000480  0.74959784    -0.78400
C559        C  0.99728858  0.46246026  0.71355582     0.82400
N560        N  0.94437570  0.46208955  0.71237753    -0.80100
C561        C  0.35924237  0.50419346  0.74209690     0.79900
N562        N  0.33394328  0.45965172  0.72887948    -0.78400
C563        C  0.28127520  0.45781612  0.73109548     0.82300
N564        N  0.25507525  0.49996487  0.74480058    -0.78400
C565        C  0.27848054  0.54386217  0.75799846     0.82400
N566        N  0.33120570  0.54619133  0.75789524    -0.80100
C567        C  0.74889798  0.91522303  0.49828353     0.79900
N568        N  0.71411430  0.94270319  0.46877352    -0.78400
C569        C  0.71802367  0.99506793  0.46691359     0.82300
N570        N  0.75635984  0.01805416  0.49233529    -0.78400
C571        C  0.79041940  0.99290557  0.52146109     0.82400
N572        N  0.78650597  0.94078865  0.52581597    -0.80100
C573        C  0.00669462  0.24849755  0.40856735     0.79900
N574        N  0.03700183  0.28303337  0.43575077    -0.78400
C575        C  0.03862480  0.28000065  0.48851945     0.82300
N576        N  0.01153414  0.24336386  0.51212234    -0.78400
C577        C  0.98168004  0.20970050  0.48756878     0.82400
N578        N  0.97824390  0.21210184  0.43502120    -0.80100
C579        C  0.00228911  0.24946944  0.85293080     0.79900
N580        N  0.96096076  0.23126798  0.82533396    -0.78400
C581        C  0.96306042  0.23160428  0.77291652     0.82300
N582        N  0.00620872  0.24718834  0.74947278    -0.78400
C583        C  0.04761695  0.26373209  0.77535045     0.82400
N584        N  0.04583347  0.26624207  0.82777105    -0.80100
C585        C  0.51463630  0.72982732  0.34265257     0.79900
N586        N  0.47641045  0.70163488  0.31800284    -0.78400
C587        C  0.47106389  0.70589623  0.26543092     0.82300
N588        N  0.50278554  0.73663063  0.23958710    -0.78400
C589        C  0.53999839  0.76394534  0.26158115     0.82400
N590        N  0.54618188  0.76160779  0.31383909    -0.80100
C591        C  0.83601831  0.98276658  0.24403729     0.79900
N592        N  0.81514182  0.02761032  0.26317795    -0.78400
C593        C  0.76312582  0.03564445  0.25985325     0.82300
N594        N  0.73365306  0.99926568  0.23884687    -0.78400
C595        C  0.75238001  0.95517976  0.21990303     0.82400
N596        N  0.80435788  0.94648979  0.22170428    -0.80100
C597        C  0.25471593  0.83622712  0.01112454     0.79900
N598        N  0.27991610  0.80693334  0.04771348    -0.78400
C599        C  0.28053545  0.75467064  0.04219791     0.82300
N600        N  0.25815196  0.73378168  0.00087198    -0.78400
C601        C  0.23488114  0.76111589  0.96428878     0.82400
N602        N  0.23210803  0.81301770  0.96928340    -0.80100
C603        C  0.75224665  0.35698042  0.50198861     0.79900
N604        N  0.73519633  0.33186757  0.45850521    -0.78400
C605        C  0.73693896  0.27935266  0.45660839     0.82300
N606        N  0.75375435  0.25329038  0.49776115    -0.78400
C607        C  0.76975841  0.27656359  0.54088041     0.82400
N608        N  0.77006282  0.32894423  0.54317685    -0.80100
C609        C  0.14965134  0.51801416  0.25655832     0.79900
N610        N  0.18076058  0.55211691  0.22971001    -0.78400
C611        C  0.23271580  0.54229670  0.22589254     0.82300
N612        N  0.25142230  0.49939573  0.24643065    -0.78400
C613        C  0.22267384  0.46529563  0.27136755     0.82400
N614        N  0.17113237  0.47430283  0.27737583    -0.80100
C615        C  0.24219167  0.39180774  0.99257906     0.79900
N616        N  0.20703281  0.42132557  0.96517165    -0.78400
C617        C  0.21385930  0.47361001  0.96283057     0.82300
N618        N  0.25463965  0.49429669  0.98611781    -0.78400
C619        C  0.28894491  0.46744879  0.01308594     0.82400
N620        N  0.28291996  0.41547985  0.01729571    -0.80100
C621        C  0.39467638  0.00616379  0.26572241     0.79900
N622        N  0.41735622  0.98098818  0.22504881    -0.78400
C623        C  0.46925952  0.98466362  0.21771748     0.82300
N624        N  0.49764299  0.01153448  0.25102793    -0.78400
C625        C  0.47803153  0.03566401  0.29187088     0.82400
N626        N  0.42536201  0.03403571  0.29972042    -0.80100
C627        C  0.49936192  0.26194258  0.14490868     0.79900
N628        N  0.45575743  0.27669969  0.17145562    -0.78400
C629        C  0.45535651  0.27403610  0.22406021     0.82300
N630        N  0.49792791  0.25850641  0.24877041    -0.78400
C631        C  0.54079632  0.24366607  0.22411874     0.82400
N632        N  0.54157423  0.24399155  0.17152987    -0.80100
C633        C  0.24036040  0.14199533  0.49187862     0.79900
N634        N  0.25467817  0.16986927  0.44927449    -0.78400
C635        C  0.25598625  0.22210654  0.45226889     0.82300
N636        N  0.24634588  0.24501059  0.49728299    -0.78400
C637        C  0.23434850  0.21895414  0.53988622     0.82400
N638        N  0.23002007  0.16675942  0.53755060    -0.80100
C639        C  0.01005473  0.73643706  0.09803662     0.79900
N640        N  0.03505001  0.69920340  0.06900944    -0.78400
C641        C  0.03112929  0.70085637  0.01615205     0.82300
N642        N  0.00483018  0.73933997  0.99443786    -0.78400
C643        C  0.98171193  0.77643850  0.02129170     0.82400
N644        N  0.98301858  0.77479935  0.07364163    -0.80100
C645        C  0.75073992  0.09599363  0.01066127     0.79900
N646        N  0.70668860  0.07092919  0.02626881    -0.78400
C647        C  0.70370820  0.01869495  0.02215651     0.82300
N648        N  0.74455264  0.99251390  0.00443041    -0.78400
C649        C  0.78829983  0.01559182  0.98932988     0.82400
N650        N  0.79142479  0.06804290  0.99105780    -0.80100
C651        C  0.09760040  0.99397393  0.74206711     0.79900
N652        N  0.06842845  0.01999561  0.70581710    -0.78400
C653        C  0.01583320  0.02288403  0.71171219     0.82300
N654        N  0.99406146  0.00134889  0.75323022    -0.78400
C655        C  0.02080013  0.97597458  0.78914209     0.82400
N656        N  0.07323713  0.97159790  0.78375623    -0.80100
loop_ 
_geom_bond_atom_site_label_1 
_geom_bond_atom_site_label_2 
_geom_bond_distance 
_geom_bond_site_symmetry_2 
_ccdc_geom_bond_type 
O1           C17   1.282       .  A
O1           Zn7   2.011       .  S
C2           O18   1.270       .  A
C2           O15   1.283       .  A
C2          C301   1.469       .  S
O3           C16   1.278       .  A
O3          Cd10   2.148       .  S
O4           C22   1.279       .  A
O4          Cd13   2.047       .  S
O5           C19   1.283       .  A
O5           Cd9   2.081       .  S
O6           C17   1.271       .  A
O6           Cd9   2.070       .  S
Zn7          O18   2.025       .  S
Zn7          O20   2.021       .  S
Zn7          O12   1.867       .  S
O8           C19   1.271       .  A
O8          Cd13   2.071       .  S
Cd9          O11   2.038       .  S
Cd9          O12   1.948       .  S
Cd10         O14   2.131       .  S
Cd10         O23   2.123       .  S
Cd10         O12   2.060       .  S
O11          C21   1.277       .  A
O12         Cd13   1.943       .  S
Cd13         O15   2.075       .  S
O14          C21   1.279       .  A
C16          O20   1.282       .  A
C16         C297   1.493       .  S
C17         C289   1.469       .  S
C19         C315   1.474       .  S
C21         C309   1.471       .  S
C22          O23   1.279       .  A
C22         C319   1.470       .  S
O24          C40   1.285       .  A
O24         Zn30   2.029       .  S
C25          O41   1.274       .  A
C25          O38   1.281       .  A
C25         C273   1.475       .  S
O26          C39   1.278       .  A
O26         Cd33   2.145       .  S
O27          C45   1.278       .  A
O27         Cd36   2.038       .  S
O28          C42   1.282       .  A
O28         Cd32   2.073       .  S
O29          C40   1.268       .  A
O29         Cd32   2.053       .  S
Zn30         O41   2.037       .  S
Zn30         O43   1.990       .  S
Zn30         O35   1.858       .  S
O31          C42   1.270       .  A
O31         Cd36   2.064       .  S
Cd32         O34   2.043       .  S
Cd32         O35   1.940       .  S
Cd33         O37   2.107       .  S
Cd33         O46   2.125       .  S
Cd33         O35   2.057       .  S
O34          C44   1.279       .  A
O35         Cd36   1.921       .  S
Cd36         O38   2.058       .  S
O37          C44   1.277       .  A
C39          O43   1.278       .  A
C39          C78   1.485   1_655  S
C40         C327   1.466       .  S
C42         C303   1.469       .  S
C44         C321   1.460       .  S
C45          O46   1.277       .  A
C45         C255   1.471       .  S
O47          C63   1.280       .  A
O47         Zn53   1.999       .  S
C48          O64   1.270       .  A
C48          O61   1.280       .  A
C48          C74   1.481       .  S
O49          C62   1.278       .  A
O49         Cd56   2.132       .  S
O50          C68   1.277       .  A
O50         Cd59   2.040       .  S
O51          C65   1.279       .  A
O51         Cd55   2.055       .  S
O52          C63   1.268   1_455  A
O52         Cd55   2.066   1_455  S
Zn53         O64   2.056       .  S
Zn53         O66   1.964       .  S
Zn53         O58   1.887       .  S
O54          C65   1.271       .  A
O54         Cd59   2.075       .  S
Cd55         O57   2.044       .  S
Cd55         O58   1.955       .  S
Cd56         O60   2.147       .  S
Cd56         O69   2.156       .  S
Cd56         O58   2.075       .  S
O57          C67   1.276       .  A
O58         Cd59   1.938       .  S
Cd59         O61   2.063       .  S
O60          C67   1.282       .  A
C62          O66   1.275       .  A
C62         C325   1.475       .  S
C63          C80   1.464   1_655  S
C65         C174   1.464   1_554  S
C67         C180   1.477       .  S
C68          O69   1.282       .  A
C68         C283   1.487       .  S
C70         C468   1.507       .  S
C70          N71   1.385       .  A
C70          N75   1.383   1_556  A
N71          C72   1.371       .  A
C72         C103   1.481       .  S
C72          N73   1.334       .  A
N73          C74   1.334   1_556  A
C74          N75   1.371       .  A
C76         C609   1.498       .  S
C76          N77   1.389       .  A
C76          N81   1.374       .  A
N77          C78   1.377       .  A
C78          N79   1.334   1_455  A
N79          C80   1.329   1_655  A
C80          N81   1.360       .  A
O82          C98   1.282       .  A
O82         Zn88   2.026       .  S
C83          O99   1.273       .  A
C83          O96   1.279       .  A
C83         C285   1.473       .  S
O84          C97   1.277       .  A
O84         Cd91   2.129       .  S
O85         C103   1.278       .  A
O85         Cd94   2.053       .  S
O86         C100   1.281       .  A
O86         Cd90   2.075       .  S
O87          C98   1.270       .  A
O87         Cd90   2.081       .  S
Zn88         O99   2.044       .  S
Zn88        O101   1.970       .  S
Zn88         O93   1.885       .  S
O89         C100   1.271       .  A
O89         Cd94   2.079       .  S
Cd90         O92   2.028       .  S
Cd90         O93   1.953       .  S
Cd91         O95   2.111       .  S
Cd91        O104   2.135       .  S
Cd91         O93   2.066       .  S
O92         C102   1.276       .  A
O93         Cd94   1.935       .  S
Cd94         O96   2.050       .  S
O95         C102   1.278       .  A
C97         O101   1.274       .  A
C97         C130   1.475   1_556  S
C98         C136   1.476       .  S
C100        C313   1.469       .  S
C102        C307   1.459       .  S
C103        O104   1.278       .  A
O105        C121   1.280       .  A
O105       Zn111   2.014       .  S
C106        O122   1.272       .  A
C106        O119   1.278       .  A
C106        C142   1.468       .  S
O107        C120   1.281       .  A
O107       Cd114   2.157       .  S
O108        C126   1.277       .  A
O108       Cd117   2.043       .  S
O109        C123   1.278       .  A
O109       Cd113   2.050       .  S
O110        C121   1.267       .  A
O110       Cd113   2.061       .  S
Zn111       O122   2.037       .  S
Zn111       O124   1.988       .  S
Zn111       O116   1.885       .  S
O112        C123   1.270   1_565  A
O112       Cd117   2.075   1_565  S
Cd113       O115   2.030       .  S
Cd113       O116   1.951       .  S
Cd114       O118   2.153       .  S
Cd114       O127   2.142       .  S
Cd114       O116   2.069       .  S
O115        C125   1.275       .  A
O116       Cd117   1.950       .  S
Cd117       O119   2.052       .  S
O118        C125   1.282       .  A
C120        O124   1.276       .  A
C120        C138   1.488       .  S
C121        C132   1.466   1_556  S
C123        C162   1.463   1_545  S
C125        C156   1.480       .  S
C126        O127   1.282       .  A
C126        C279   1.476       .  S
C128        C627   1.489       .  S
C128        N129   1.382       .  A
C128        N133   1.374       .  A
N129        C130   1.370       .  A
C130        N131   1.338   1_554  A
N131        C132   1.333   1_556  A
C132        N133   1.362       .  A
C134        C375   1.506       .  S
C134        N135   1.378       .  A
C134        N139   1.387       .  A
N135        C136   1.366       .  A
C136        N137   1.336       .  A
N137        C138   1.339       .  A
C138        N139   1.375       .  A
C140        C497   1.486       .  S
C140        N141   1.374   1_565  A
C140        N145   1.376       .  A
N141        C142   1.364       .  A
C142        N143   1.340   1_545  A
N143        C144   1.340       .  A
C144        C206   1.472       .  S
C144        N145   1.367       .  A
C146        C591   1.489       .  S
C146        N147   1.373   1_565  A
C146        N151   1.378       .  A
N147        C148   1.363   1_545  A
C148        C198   1.462   1_665  S
C148        N149   1.335       .  A
N149        C150   1.334       .  A
C150        C244   1.467   1_655  S
C150        N151   1.370       .  A
C152        C615   1.505       .  S
C152        N153   1.386   1_556  A
C152        N157   1.383       .  A
N153        C154   1.373       .  A
C154        C203   1.485       .  S
C154        N155   1.336   1_554  A
N155        C156   1.335       .  A
C156        N157   1.368       .  A
C158        C597   1.482       .  S
C158        N159   1.375       .  A
C158        N163   1.373   1_554  A
N159        C160   1.366       .  A
C160        C183   1.465   1_565  S
C160        N161   1.336       .  A
N161        C162   1.337   1_554  A
C162        N163   1.363       .  A
C164        C621   1.506       .  S
C164        N165   1.384       .  A
C164        N169   1.388   1_545  A
N165        C166   1.369       .  A
C166        C197   1.483       .  S
C166        N167   1.336   1_545  A
N167        C168   1.335       .  A
C168        C243   1.488       .  S
C168        N169   1.373       .  A
C170        C579   1.475       .  S
C170        N171   1.371       .  A
C170        N175   1.373   1_455  A
N171        C172   1.361       .  A
C172        C200   1.463   1_556  S
C172        N173   1.340   1_456  A
N173        C174   1.339   1_554  A
C174        N175   1.364       .  A
C176        C573   1.506       .  S
C176        N177   1.383       .  A
C176        N181   1.385   1_455  A
N177        C178   1.369       .  A
C178        C202   1.472       .  S
C178        N179   1.333       .  A
N179        C180   1.332   1_455  A
C180        N181   1.372       .  A
O182        C198   1.278       .  A
O182       Zn188   1.997       .  S
C183        O199   1.267   1_545  A
C183        O196   1.280       .  A
O184        C197   1.281       .  A
O184       Cd191   2.149       .  S
O185        C203   1.275       .  A
O185       Cd194   2.033       .  S
O186        C200   1.277       .  A
O186       Cd190   2.045       .  S
O187        C198   1.267   1_655  A
O187       Cd190   2.062   1_655  S
Zn188       O199   2.019   1_545  S
Zn188       O201   1.974       .  S
Zn188       O193   1.874       .  S
O189        C200   1.271       .  A
O189       Cd194   2.068       .  S
Cd190       O192   2.034       .  S
Cd190       O193   1.943       .  S
Cd191       O195   2.138       .  S
Cd191       O204   2.166       .  S
Cd191       O193   2.065       .  S
O192        C202   1.275       .  A
O193       Cd194   1.940       .  S
Cd194       O196   2.060       .  S
O195        C202   1.281       .  A
C197        O201   1.277       .  A
C203        O204   1.284       .  A
O205        C221   1.280       .  A
O205       Zn211   2.006       .  S
C206        O222   1.270       .  A
C206        O219   1.280       .  A
O207        C220   1.280       .  A
O207       Cd214   2.145       .  S
O208        C226   1.277       .  A
O208       Cd217   2.048       .  S
O209        C223   1.279       .  A
O209       Cd213   2.051       .  S
O210        C221   1.268       .  A
O210       Cd213   2.067       .  S
Zn211       O222   2.031       .  S
Zn211       O224   1.976       .  S
Zn211       O216   1.876       .  S
O212        C223   1.271       .  A
O212       Cd217   2.065       .  S
Cd213       O215   2.035       .  S
Cd213       O216   1.947       .  S
Cd214       O218   2.153       .  S
Cd214       O227   2.159       .  S
Cd214       O216   2.068       .  S
O215        C225   1.276       .  A
O216       Cd217   1.943       .  S
Cd217       O219   2.068       .  S
O218        C225   1.282       .  A
C220        O224   1.277       .  A
C220        C291   1.483       .  S
C221        C295   1.467       .  S
C223        C259   1.462   1_565  S
C225        C265   1.480       .  S
C226        O227   1.284       .  A
C226        C277   1.486       .  S
O228        C244   1.284       .  A
O228       Zn234   2.032       .  S
C229        O245   1.274       .  A
C229        O242   1.279       .  A
C229        C261   1.473   1_565  S
O230        C243   1.283       .  A
O230       Cd237   2.160       .  S
O231        C249   1.276       .  A
O231       Cd240   2.031       .  S
O232        C246   1.279       .  A
O232       Cd236   2.034       .  S
O233        C244   1.271   1_655  A
O233       Cd236   2.080   1_655  S
Zn234       O245   2.050       .  S
Zn234       O247   1.988       .  S
Zn234       O239   1.875       .  S
O235        C246   1.265       .  A
O235       Cd240   2.062       .  S
Cd236       O238   2.060       .  S
Cd236       O239   1.930       .  S
Cd237       O241   2.161       .  S
Cd237       O250   2.147       .  S
Cd237       O239   2.056       .  S
O238        C248   1.276       .  A
O239       Cd240   1.940       .  S
Cd240       O242   2.037       .  S
O241        C248   1.279       .  A
C243        O247   1.278       .  A
C246        C253   1.462   1_455  S
C248        C271   1.492       .  S
C249        O250   1.284       .  A
C249        C267   1.472       .  S
C251        C549   1.486       .  S
C251        N252   1.376   1_655  A
C251        N256   1.384       .  A
N252        C253   1.361   1_455  A
C253        N254   1.326       .  A
N254        C255   1.327       .  A
C255        N256   1.369       .  A
C257        C633   1.480       .  S
C257        N258   1.371       .  A
C257        N262   1.378       .  A
N258        C259   1.360       .  A
C259        N260   1.337   1_545  A
N260        C261   1.339   1_565  A
C261        N262   1.368       .  A
C263        C439   1.505       .  S
C263        N264   1.386       .  A
C263        N268   1.384       .  A
N264        C265   1.371       .  A
C265        N266   1.332       .  A
N266        C267   1.331       .  A
C267        N268   1.370       .  A
C269        C639   1.498       .  S
C269        N270   1.386       .  A
C269        N274   1.376   1_455  A
N270        C271   1.374       .  A
C271        N272   1.342   1_455  A
N272        C273   1.337       .  A
C273        N274   1.362       .  A
C275        C651   1.509       .  S
C275        N276   1.387       .  A
C275        N280   1.382   1_565  A
N276        C277   1.375       .  A
C277        N278   1.336       .  A
N278        C279   1.335   1_565  A
C279        N280   1.368       .  A
C281        C645   1.495       .  S
C281        N282   1.386       .  A
C281        N286   1.375   1_554  A
N282        C283   1.373       .  A
C283        N284   1.339       .  A
N284        C285   1.336   1_554  A
C285        N286   1.362       .  A
C287        C410   1.494       .  S
C287        N288   1.375       .  A
C287        N292   1.385       .  A
N288        C289   1.363       .  A
C289        N290   1.333       .  A
N290        C291   1.337       .  A
C291        N292   1.372       .  A
C293        C585   1.509       .  S
C293        N294   1.375       .  A
C293        N298   1.392       .  A
N294        C295   1.362       .  A
C295        N296   1.331       .  A
N296        C297   1.334       .  A
C297        N298   1.381       .  A
C299        C567   1.493       .  S
C299        N300   1.377       .  A
C299        N304   1.375       .  A
N300        C301   1.368       .  A
C301        N302   1.338       .  A
N302        C303   1.338       .  A
C303        N304   1.366       .  A
C305        C561   1.492       .  S
C305        N306   1.377       .  A
C305        N310   1.384       .  A
N306        C307   1.363       .  A
C307        N308   1.330       .  A
N308        C309   1.331       .  A
C309        N310   1.370       .  A
C311        C555   1.492       .  S
C311        N312   1.375       .  A
C311        N316   1.376       .  A
N312        C313   1.367       .  A
C313        N314   1.341       .  A
N314        C315   1.341       .  A
C315        N316   1.367       .  A
C317        C603   1.494       .  S
C317        N318   1.382       .  A
C317        N322   1.379       .  A
N318        C319   1.369       .  A
C319        N320   1.330       .  A
N320        C321   1.329       .  A
C321        N322   1.366       .  A
C323        C404   1.489       .  S
C323        N324   1.382       .  A
C323        N328   1.375       .  A
N324        C325   1.370       .  A
C325        N326   1.337       .  A
N326        C327   1.332       .  A
C327        N328   1.363       .  A
O329        C345   1.272       .  A
O329       Zn335   2.029       .  S
C330        O346   1.282       .  A
C330        O343   1.269       .  A
C330        C563   1.471       .  S
O331        C344   1.279       .  A
O331       Cd338   2.138       .  S
O332        C350   1.278       .  A
O332       Cd341   2.040       .  S
O333        C347   1.267       .  A
O333       Cd337   2.056       .  S
O334        C345   1.278       .  A
O334       Cd337   2.036       .  S
Zn335       O346   2.025       .  S
Zn335       O348   1.980       .  S
Zn335       O340   1.875       .  S
O336        C347   1.283       .  A
O336       Cd341   2.070       .  S
Cd337       O339   2.043       .  S
Cd337       O340   1.928       .  S
Cd338       O342   2.153       .  S
Cd338       O351   2.145       .  S
Cd338       O340   2.065       .  S
O339        C349   1.278       .  A
O340       Cd341   1.933       .  S
Cd341       O343   2.064       .  S
O342        C349   1.282       .  A
C344        O348   1.276       .  A
C344        C559   1.475   1_455  S
C345        C583   1.464       .  S
C347        C637   1.465       .  S
C349        C575   1.483       .  S
C350        O351   1.281       .  A
C350        C443   1.479       .  S
O352        C368   1.273       .  A
O352       Zn358   2.047       .  S
C353        O369   1.285       .  A
C353        O366   1.271       .  A
C353        C593   1.478       .  S
O354        C367   1.279       .  A
O354       Cd361   2.149       .  S
O355        C373   1.276       .  A
O355       Cd364   2.034       .  S
O356        C370   1.269       .  A
O356       Cd360   2.075       .  S
O357        C368   1.280       .  A
O357       Cd360   2.057       .  S
Zn358       O369   2.035       .  S
Zn358       O371   2.029       .  S
Zn358       O363   1.886       .  S
O359        C370   1.283       .  A
O359       Cd364   2.084       .  S
Cd360       O362   2.049       .  S
Cd360       O363   1.947       .  S
Cd361       O365   2.128       .  S
Cd361       O374   2.142       .  S
Cd361       O363   2.068       .  S
O362        C372   1.279       .  A
O363       Cd364   1.959       .  S
Cd364       O366   2.078       .  S
O365        C372   1.279       .  A
C367        O371   1.282       .  A
C367        C625   1.493       .  S
C368        C631   1.470       .  S
C370        C605   1.473       .  S
C372        C379   1.474       .  S
C373        O374   1.281       .  A
C373        C569   1.477   1_545  S
C375        N376   1.385       .  A
C375        N380   1.384       .  A
N376        C377   1.372       .  A
C377        C401   1.474       .  S
C377        N378   1.331       .  A
N378        C379   1.331       .  A
C379        N380   1.369       .  A
O381        C397   1.271       .  A
O381       Zn387   2.032       .  S
C382        O398   1.283       .  A
C382        O395   1.265       .  A
C382        C613   1.464       .  S
O383        C396   1.278       .  A
O383       Cd390   2.138       .  S
O384        C402   1.278       .  A
O384       Cd393   2.039       .  S
O385        C399   1.270       .  A
O385       Cd389   2.067       .  S
O386        C397   1.281       .  A
O386       Cd389   2.062       .  S
Zn387       O398   2.009       .  S
Zn387       O400   1.975       .  S
Zn387       O392   1.860       .  S
O388        C399   1.281       .  A
O388       Cd393   2.049       .  S
Cd389       O391   2.054       .  S
Cd389       O392   1.930       .  S
Cd390       O394   2.133       .  S
Cd390       O403   2.125       .  S
Cd390       O392   2.057       .  S
O391        C401   1.278       .  A
O392       Cd393   1.939       .  S
Cd393       O395   2.055       .  S
O394        C401   1.280       .  A
C396        O400   1.277       .  A
C396        C408   1.481       .  S
C397        C629   1.473       .  S
C399        C635   1.460       .  S
C402        O403   1.278       .  A
C402        C441   1.469       .  S
C404        N405   1.376       .  A
C404        N409   1.385       .  A
N405        C406   1.361       .  A
C406        C417   1.467       .  S
C406        N407   1.331       .  A
N407        C408   1.334       .  A
C408        N409   1.371       .  A
C410        N411   1.374       .  A
C410        N415   1.378       .  A
N411        C412   1.366       .  A
C412        C446   1.466   1_556  S
C412        N413   1.339   1_556  A
N413        C414   1.338   1_554  A
C414        C434   1.474   1_556  S
C414        N415   1.370       .  A
O416        C432   1.268       .  A
O416       Zn422   2.042       .  S
C417        O433   1.282       .  A
C417        O430   1.272       .  A
O418        C431   1.274       .  A
O418       Cd425   2.119       .  S
O419        C437   1.278       .  A
O419       Cd428   2.051       .  S
O420        C434   1.268   1_556  A
O420       Cd424   2.068   1_556  S
O421        C432   1.280       .  A
O421       Cd424   2.048       .  S
Zn422       O433   1.995       .  S
Zn422       O435   1.999       .  S
Zn422       O427   1.874       .  S
O423        C434   1.285       .  A
O423       Cd428   2.095       .  S
Cd424       O426   2.029       .  S
Cd424       O427   1.926       .  S
Cd425       O429   2.129       .  S
Cd425       O438   2.143       .  S
Cd425       O427   2.070       .  S
O426        C436   1.278       .  A
O427       Cd428   1.948       .  S
Cd428       O430   2.074       .  S
O429        C436   1.279       .  A
C431        O435   1.280       .  A
C431        C611   1.477       .  S
C432        C619   1.473       .  S
C436        C599   1.476       .  S
C437        O438   1.280       .  A
C437        C587   1.477       .  S
C439        N440   1.383       .  A
C439        N444   1.387       .  A
N440        C441   1.368       .  A
C441        N442   1.327       .  A
N442        C443   1.329       .  A
C443        N444   1.373       .  A
O445        C461   1.270       .  A
O445       Zn451   2.036       .  S
C446        O462   1.282       .  A
C446        O459   1.271   1_554  A
O447        C460   1.275       .  A
O447       Cd454   2.113       .  S
O448        C466   1.278       .  A
O448       Cd457   2.053       .  S
O449        C463   1.269   1_545  A
O449       Cd453   2.073   1_545  S
O450        C461   1.276       .  A
O450       Cd453   2.028       .  S
Zn451       O462   2.019       .  S
Zn451       O464   1.994       .  S
Zn451       O456   1.892       .  S
O452        C463   1.281       .  A
O452       Cd457   2.077       .  S
Cd453       O455   2.015       .  S
Cd453       O456   1.927       .  S
Cd454       O458   2.130       .  S
Cd454       O467   2.140       .  S
Cd454       O456   2.060       .  S
O455        C465   1.274       .  A
O456       Cd457   1.943       .  S
Cd457       O459   2.067   1_554  S
O458        C465   1.279       .  A
C460        O464   1.279       .  A
C460        C589   1.468       .  S
C461        C623   1.465       .  S
C463        C647   1.473   1_565  S
C465        C595   1.475       .  S
C466        O467   1.281       .  A
C466        C472   1.479       .  S
C468        N469   1.382       .  A
C468        N473   1.384   1_556  A
N469        C470   1.369       .  A
C470        C523   1.473       .  S
C470        N471   1.333       .  A
N471        C472   1.335   1_556  A
C472        N473   1.372       .  A
O474        C490   1.270       .  A
O474       Zn480   2.025       .  S
C475        O491   1.279       .  A
C475        O488   1.268       .  A
C475        C499   1.464       .  S
O476        C489   1.280       .  A
O476       Cd483   2.149       .  S
O477        C495   1.274       .  A
O477       Cd486   2.021       .  S
O478        C492   1.269       .  A
O478       Cd482   2.074       .  S
O479        C490   1.279       .  A
O479       Cd482   2.047       .  S
Zn480       O491   1.996       .  S
Zn480       O493   1.995       .  S
Zn480       O485   1.878       .  S
O481        C492   1.279       .  A
O481       Cd486   2.063       .  S
Cd482       O484   2.038       .  S
Cd482       O485   1.940       .  S
Cd483       O487   2.139       .  S
Cd483       O496   2.135       .  S
Cd483       O485   2.063       .  S
O484        C494   1.277       .  A
O485       Cd486   1.947       .  S
Cd486       O488   2.065       .  S
O487        C494   1.281       .  A
C489        O493   1.277       .  A
C489        C653   1.485   1_655  S
C490        C581   1.462       .  S
C492        C607   1.468       .  S
C494        C577   1.473       .  S
C495        O496   1.280       .  A
C495        C571   1.469   1_545  S
C497        N498   1.374   1_565  A
C497        N502   1.380       .  A
N498        C499   1.362       .  A
C499        N500   1.335       .  A
N500        C501   1.337   1_545  A
C501        C518   1.473       .  S
C501        N502   1.369       .  A
O503        C519   1.274       .  A
O503       Zn509   2.051       .  S
C504        O520   1.283       .  A
C504        O517   1.270   1_655  A
C504        C655   1.483   1_655  S
O505        C518   1.277       .  A
O505       Cd512   2.122       .  S
O506        C524   1.275       .  A
O506       Cd515   2.020       .  S
O507        C521   1.271   1_554  A
O507       Cd511   2.082   1_554  S
O508        C519   1.281       .  A
O508       Cd511   2.068       .  S
Zn509       O520   2.039       .  S
Zn509       O522   1.985       .  S
Zn509       O514   1.890       .  S
O510        C521   1.279       .  A
O510       Cd515   2.049       .  S
Cd511       O513   2.047       .  S
Cd511       O514   1.954       .  S
Cd512       O516   2.127       .  S
Cd512       O525   2.127       .  S
Cd512       O514   2.073       .  S
O513        C523   1.277       .  A
O514       Cd515   1.943       .  S
Cd515       O517   2.091   1_655  S
O516        C523   1.278       .  A
C518        O522   1.277       .  A
C519        C649   1.477   1_565  S
C521        C643   1.467   1_556  S
C524        O525   1.277       .  A
C524        C551   1.474       .  S
O526        C542   1.269       .  A
O526       Zn532   2.028       .  S
C527        O543   1.281       .  A
C527        O540   1.269       .  A
C527        C565   1.467       .  S
O528        C541   1.279       .  A
O528       Cd535   2.117       .  S
O529        C547   1.280       .  A
O529       Cd538   2.056       .  S
O530        C544   1.270       .  A
O530       Cd534   2.069       .  S
O531        C542   1.281       .  A
O531       Cd534   2.056       .  S
Zn532       O543   2.021       .  S
Zn532       O545   1.964       .  S
Zn532       O537   1.891       .  S
O533        C544   1.280       .  A
O533       Cd538   2.047       .  S
Cd534       O536   2.039       .  S
Cd534       O537   1.936       .  S
Cd535       O539   2.155       .  S
Cd535       O548   2.140       .  S
Cd535       O537   2.066       .  S
O536        C546   1.276       .  A
O537       Cd538   1.926       .  S
Cd538       O540   2.072       .  S
O539        C546   1.281       .  A
C541        O545   1.275       .  A
C541        C557   1.461   1_455  S
C542        C553   1.471       .  S
C544        C601   1.464       .  S
C546        C641   1.485   1_556  S
C547        O548   1.279       .  A
C547        C617   1.484       .  S
C549        N550   1.381       .  A
C549        N554   1.378   1_655  A
N550        C551   1.366       .  A
C551        N552   1.336       .  A
N552        C553   1.332   1_655  A
C553        N554   1.365       .  A
C555        N556   1.377       .  A
C555        N560   1.385       .  A
N556        C557   1.362       .  A
C557        N558   1.331   1_655  A
N558        C559   1.333   1_455  A
C559        N560   1.371       .  A
C561        N562   1.376       .  A
C561        N566   1.375       .  A
N562        C563   1.366       .  A
C563        N564   1.339       .  A
N564        C565   1.339       .  A
C565        N566   1.367       .  A
C567        N568   1.383       .  A
C567        N572   1.380       .  A
N568        C569   1.368       .  A
C569        N570   1.334   1_565  A
N570        C571   1.334   1_545  A
C571        N572   1.366       .  A
C573        N574   1.387       .  A
C573        N578   1.383   1_455  A
N574        C575   1.373       .  A
C575        N576   1.333       .  A
N576        C577   1.332   1_455  A
C577        N578   1.368       .  A
C579        N580   1.373   1_455  A
C579        N584   1.374       .  A
N580        C581   1.362       .  A
C581        N582   1.335   1_655  A
N582        C583   1.337       .  A
C583        N584   1.363       .  A
C585        N586   1.389       .  A
C585        N590   1.383       .  A
N586        C587   1.376       .  A
C587        N588   1.329       .  A
N588        C589   1.327       .  A
C589        N590   1.367       .  A
C591        N592   1.379   1_565  A
C591        N596   1.379       .  A
N592        C593   1.366       .  A
C593        N594   1.334   1_545  A
N594        C595   1.340       .  A
C595        N596   1.366       .  A
C597        N598   1.382       .  A
C597        N602   1.374   1_554  A
N598        C599   1.369       .  A
C599        N600   1.336       .  A
N600        C601   1.331   1_554  A
C601        N602   1.360       .  A
C603        N604   1.377       .  A
C603        N608   1.375       .  A
N604        C605   1.369       .  A
C605        N606   1.339       .  A
N606        C607   1.339       .  A
C607        N608   1.365       .  A
C609        N610   1.387       .  A
C609        N614   1.378       .  A
N610        C611   1.373       .  A
C611        N612   1.329       .  A
N612        C613   1.327       .  A
C613        N614   1.364       .  A
C615        N616   1.388       .  A
C615        N620   1.380   1_556  A
N616        C617   1.374       .  A
C617        N618   1.331       .  A
N618        C619   1.330   1_556  A
C619        N620   1.367       .  A
C621        N622   1.374   1_545  A
C621        N626   1.392       .  A
N622        C623   1.361       .  A
C623        N624   1.334   1_565  A
N624        C625   1.333       .  A
C625        N626   1.380       .  A
C627        N628   1.377       .  A
C627        N632   1.376       .  A
N628        C629   1.367       .  A
C629        N630   1.339       .  A
N630        C631   1.338       .  A
C631        N632   1.365       .  A
C633        N634   1.374       .  A
C633        N638   1.376       .  A
N634        C635   1.363       .  A
C635        N636   1.335       .  A
N636        C637   1.334       .  A
C637        N638   1.365       .  A
C639        N640   1.388       .  A
C639        N644   1.375   1_455  A
N640        C641   1.377       .  A
C641        N642   1.337   1_554  A
N642        C643   1.333   1_456  A
C643        N644   1.360       .  A
C645        N646   1.375       .  A
C645        N650   1.378   1_554  A
N646        C647   1.367       .  A
C647        N648   1.340   1_545  A
N648        C649   1.341   1_564  A
C649        N650   1.369       .  A
C651        N652   1.384   1_565  A
C651        N656   1.381       .  A
N652        C653   1.373       .  A
C653        N654   1.339   1_455  A
N654        C655   1.336   1_645  A
C655        N656   1.370       .  A
