geometry optimzed in LAMMPS
_audit_creation_date              2020-11-30 
_audit_creation_method            'lammps2cif' 
_symmetry_space_group_name_H-M    'P1' 
_symmetry_Int_Tables_number       1 
_symmetry_cell_setting            triclinic 
loop_ 
_symmetry_equiv_pos_as_xyz 
  x,y,z 
_cell_length_a                    35.30505391 
_cell_length_b                    35.175797427220175 
_cell_length_c                    35.359455917968376 
_cell_angle_alpha                 89.99459827157378 
_cell_angle_beta                  90.15411370187569 
_cell_angle_gamma                 90.00991999981724 
loop_ 
_atom_site_label 
_atom_site_type_symbol 
_atom_site_fract_x 
_atom_site_fract_y 
_atom_site_fract_z 
_atom_site_charge 
N1          N  0.50149302  0.05984730  0.49585601    -0.35200
N2          N  0.50181663  0.00328816  0.55566414    -0.55800
N3          N  0.50275963  0.94352302  0.49836612    -0.35200
N4          N  0.49920410  0.00010646  0.43846547    -0.55800
C5          C  0.49430481  0.08243461  0.52602707     0.28400
C6          C  0.49608504  0.08100275  0.46437079     0.28400
C7          C  0.49765758  0.92255927  0.53003121     0.28400
C8          C  0.49447117  0.92093777  0.46844770     0.28400
C9          C  0.50539242  0.03480217  0.57727685     0.37000
C10         C  0.50864787  0.97319848  0.57842999     0.37000
C11         C  0.50464129  0.03032164  0.41545750     0.37000
C12         C  0.50267795  0.96861630  0.41676875     0.37000
C13         C  0.48461762  0.11852816  0.51345687    -0.20500
C14         C  0.48586187  0.11766337  0.47465314    -0.20500
C15         C  0.48658726  0.88604523  0.52008161    -0.20500
C16         C  0.48452586  0.88504393  0.48132825    -0.20500
C17         C  0.51408551  0.02468369  0.61417697    -0.21500
C18         C  0.51623033  0.98564360  0.61489858    -0.21500
C19         C  0.51083579  0.01798268  0.37874885    -0.21500
C20         C  0.50948538  0.97888884  0.37956548    -0.21500
C21         C  0.49895783  0.07238710  0.56456207    -0.16900
C22         C  0.50204348  0.06887204  0.42666639    -0.16900
C23         C  0.49815642  0.93083702  0.42980807    -0.16900
C24         C  0.50472089  0.93469665  0.56755270    -0.16900
H25         H  0.47801757  0.14324367  0.53042966     0.16000
H26         H  0.48016828  0.14152401  0.45616819     0.16000
H27         H  0.48094122  0.86231739  0.53871298     0.16000
H28         H  0.47706638  0.86038488  0.46459881     0.16000
H29         H  0.51806209  0.04342274  0.63814145     0.14300
H30         H  0.52192352  0.96838613  0.63961350     0.14300
H31         H  0.51546512  0.03534059  0.35390876     0.14300
H32         H  0.51299793  0.96018907  0.35552171     0.14300
H33         H  0.51368328  0.03308720  0.49658440     0.27600
H34         H  0.51546170  0.97006077  0.49720367     0.27600
N35         N  0.05895979  0.49899463  0.50036257    -0.35200
N36         N  0.00125545  0.43965270  0.50567751    -0.55800
N37         N  0.94373740  0.49855788  0.50538154    -0.35200
N38         N  0.00113936  0.55793463  0.50199411    -0.55800
C39         C  0.08097151  0.46798077  0.50621627     0.28400
C40         C  0.08091747  0.53014362  0.50599432     0.28400
C41         C  0.92262174  0.46796585  0.51514840     0.28400
C42         C  0.92235340  0.52981752  0.51160322     0.28400
C43         C  0.03168687  0.41745140  0.49847630     0.37000
C44         C  0.97016731  0.41737930  0.50209114     0.37000
C45         C  0.03170520  0.58035224  0.49607233     0.37000
C46         C  0.97009433  0.57979826  0.49639847     0.37000
C47         C  0.11742848  0.47960085  0.51531953    -0.20500
C48         C  0.11740235  0.51861624  0.51517974    -0.20500
C49         C  0.88751710  0.48002244  0.52795276    -0.20500
C50         C  0.88730008  0.51892038  0.52563473    -0.20500
C51         C  0.01990437  0.38058152  0.49105136    -0.21500
C52         C  0.98091623  0.38056390  0.49324399    -0.21500
C53         C  0.01999911  0.61701708  0.48760215    -0.21500
C54         C  0.98095711  0.61661989  0.48764168    -0.21500
C55         C  0.06993755  0.42952922  0.50103912    -0.16900
C56         C  0.06990844  0.56855003  0.50014260    -0.16900
C57         C  0.93228063  0.56752661  0.50180739    -0.16900
C58         C  0.93250644  0.42952976  0.50877873    -0.16900
H59         H  0.14190519  0.46191555  0.52079574     0.16000
H60         H  0.14191815  0.53628852  0.52045642     0.16000
H61         H  0.86389409  0.46269480  0.53695386     0.16000
H62         H  0.86347107  0.53686484  0.53265594     0.16000
H63         H  0.03756193  0.35619294  0.48499661     0.14300
H64         H  0.96263500  0.35618156  0.48923807     0.14300
H65         H  0.03770422  0.64154306  0.48223309     0.14300
H66         H  0.96268918  0.64079890  0.48252502     0.14300
H67         H  0.03197856  0.49877350  0.48874917     0.27600
H68         H  0.96880049  0.49794646  0.49014317     0.27600
N69         N  0.49953718  0.49998032  0.94324390    -0.35200
N70         N  0.55657473  0.50091724  0.00239132    -0.55800
N71         N  0.49590818  0.49859590  0.05861825    -0.35200
N72         N  0.43915446  0.49986758  0.99936934    -0.55800
C73         C  0.53068331  0.50872670  0.92276221     0.28400
C74         C  0.46904787  0.50667319  0.92100476     0.28400
C75         C  0.52631071  0.50370221  0.08140690     0.28400
C76         C  0.46453712  0.50507466  0.07965395     0.28400
C77         C  0.57939550  0.49562970  0.97214266     0.37000
C78         C  0.57747800  0.49329741  0.03358242     0.37000
C79         C  0.41795610  0.49423213  0.96803852     0.37000
C80         C  0.41577690  0.49565089  0.02928142     0.37000
C81         C  0.51973180  0.52077690  0.88697237    -0.20500
C82         C  0.48092782  0.51942098  0.88586344    -0.20500
C83         C  0.51401692  0.51285383  0.11757084    -0.20500
C84         C  0.47519543  0.51379619  0.11642782    -0.20500
C85         C  0.61524801  0.48500680  0.98417089    -0.21500
C86         C  0.61405414  0.48358889  0.02312786    -0.21500
C87         C  0.38072560  0.48681583  0.97805212    -0.21500
C88         C  0.37932139  0.48788075  0.01689105    -0.21500
C89         C  0.56862506  0.50247470  0.93411876    -0.16900
C90         C  0.43094585  0.49927584  0.93063604    -0.16900
C91         C  0.42652911  0.50078883  0.06745408    -0.16900
C92         C  0.56468253  0.49772293  0.07128057    -0.16900
H93         H  0.53768042  0.52886924  0.86357886     0.16000
H94         H  0.46354686  0.52645518  0.86159971     0.16000
H95         H  0.53105068  0.51758499  0.14260659     0.16000
H96         H  0.45697434  0.51941754  0.14034259     0.16000
H97         H  0.63974379  0.47925007  0.96674659     0.14300
H98         H  0.63748649  0.47653501  0.04164006     0.14300
H99         H  0.35689668  0.48200584  0.95932919     0.14300
H100        H  0.35428401  0.48377006  0.03400770     0.14300
H101        H  0.49917633  0.48556988  0.96877387     0.27600
H102        H  0.49660965  0.48719407  0.03171623     0.27600
N103        N  0.00722550  0.55826635  0.00018909    -0.35200
N104        N  0.00342542  0.50034486  0.94164693    -0.55800
N105        N  0.00063991  0.44150469  0.00043212    -0.35200
N106        N  0.00017236  0.49939640  0.05905566    -0.55800
C107        C  0.00438621  0.58076936  0.96914143     0.28400
C108        C  0.00030573  0.58029301  0.03083337     0.28400
C109        C  0.99388344  0.41987727  0.96948991     0.28400
C110        C  0.99537719  0.41925870  0.03122783     0.28400
C111        C  0.00986369  0.53076789  0.91911329     0.37000
C112        C  0.00478706  0.46920430  0.91925890     0.37000
C113        C  0.00404393  0.53029987  0.08149189     0.37000
C114        C  0.00444602  0.46849028  0.08149775     0.37000
C115        C  0.99678408  0.61776213  0.98036948    -0.20500
C116        C  0.99409328  0.61744705  0.01911012    -0.20500
C117        C  0.98460442  0.38324840  0.98084737    -0.20500
C118        C  0.98565163  0.38284252  0.01968331    -0.20500
C119        C  0.01480618  0.51893042  0.88207980    -0.21500
C120        C  0.01158175  0.47999373  0.88215737    -0.21500
C121        C  0.01014804  0.51895675  0.11858049    -0.21500
C122        C  0.01057768  0.47982677  0.11855211    -0.21500
C123        C  0.00876981  0.56922403  0.93091222    -0.16900
C124        C  0.00113739  0.56858259  0.06926484    -0.16900
C125        C  0.00098198  0.43023913  0.06939246    -0.16900
C126        C  0.99842124  0.43130081  0.93129940    -0.16900
H127        H  0.99329672  0.64252698  0.96253158     0.16000
H128        H  0.98830430  0.64198243  0.03663967     0.16000
H129        H  0.97841104  0.35898230  0.96306477     0.16000
H130        H  0.98021607  0.35831224  0.03733710     0.16000
H131        H  0.01978819  0.53654099  0.85748602     0.14300
H132        H  0.01367890  0.46175906  0.85759843     0.14300
H133        H  0.01402310  0.53699447  0.14308658     0.14300
H134        H  0.01457210  0.46180135  0.14305466     0.14300
H135        H  0.01665152  0.53051142  0.00071962     0.27600
H136        H  0.01230459  0.46836847  0.00045635     0.27600
N137        N  0.44426786  0.99490688  0.99825083    -0.35200
N138        N  0.50398002  0.93720051  0.99590187    -0.55800
N139        N  0.56052138  0.99749126  0.00169404    -0.35200
N140        N  0.50068757  0.05537939  0.00039251    -0.55800
C141        C  0.42325581  0.96350302  0.99125756     0.28400
C142        C  0.42165137  0.02551295  0.99266521     0.28400
C143        C  0.58357782  0.96731799  0.99561087     0.28400
C144        C  0.58187482  0.02933406  0.99889158     0.28400
C145        C  0.47368405  0.91375954  0.99823284     0.37000
C146        C  0.53526369  0.91511748  0.99861238     0.37000
C147        C  0.46919738  0.07695826  0.00443722     0.37000
C148        C  0.53076822  0.07834615  0.00687515     0.37000
C149        C  0.38667892  0.97435663  0.98153298    -0.20500
C150        C  0.38571136  0.01333135  0.98233043    -0.20500
C151        C  0.62022968  0.98020684  0.98967261    -0.20500
C152        C  0.61917432  0.01914942  0.99175402    -0.20500
C153        C  0.48578785  0.87642636  0.00168178    -0.21500
C154        C  0.52475815  0.87727466  0.00181957    -0.21500
C155        C  0.47933328  0.11406457  0.01288126    -0.21500
C156        C  0.51829810  0.11496398  0.01436301    -0.21500
C157        C  0.43531992  0.92525122  0.99523813    -0.16900
C158        C  0.43152220  0.06401586  0.99915099    -0.16900
C159        C  0.56932768  0.06729092  0.00422834    -0.16900
C160        C  0.57316410  0.92836717  0.99689762    -0.16900
H161        H  0.36283121  0.95618348  0.97494643     0.16000
H162        H  0.36103328  0.03064550  0.97653693     0.16000
H163        H  0.64536925  0.96336077  0.98468309     0.16000
H164        H  0.64339383  0.03774248  0.98869415     0.16000
H165        H  0.46837007  0.85116864  0.00348717     0.14300
H166        H  0.54322780  0.85280312  0.00391181     0.14300
H167        H  0.46062943  0.13802780  0.01729531     0.14300
H168        H  0.53547876  0.13979003  0.02014100     0.15900
H169        H  0.47093824  0.99519780  0.01053436     0.27600
H170        H  0.53273277  0.99634972  0.01086223     0.27600
Zn171      Zn  0.78694872  0.77705951  0.78029487     1.49700
Zn172      Zn  0.76991815  0.69262779  0.74768567     1.49400
Zn173      Zn  0.70145414  0.74685945  0.76692233     1.49100
Zn174      Zn  0.75294058  0.76449052  0.69624154     1.49500
O175        O  0.75328956  0.74552580  0.74810094    -1.82700
O176        O  0.82835617  0.74354132  0.80428877    -0.73300
O177        O  0.72942330  0.65828331  0.76826914    -0.73200
O178        O  0.69823084  0.78077601  0.81153924    -0.72700
O179        O  0.81502424  0.68639856  0.78130021    -0.73400
O180        O  0.75616859  0.80290016  0.82224749    -0.73000
O181        O  0.68099662  0.69550004  0.78240294    -0.73500
O182        O  0.70170518  0.78455834  0.67966737    -0.72900
O183        O  0.78510409  0.67438013  0.69537225    -0.73700
O184        O  0.66663279  0.77077459  0.72958104    -0.73100
O185        O  0.77120251  0.72465021  0.66029408    -0.73500
O186        O  0.78814171  0.80839389  0.69121289    -0.73400
O187        O  0.81157814  0.81932308  0.74852706    -0.73200
C188        C  0.83546521  0.70796142  0.80177602     0.78600
C189        C  0.69615634  0.66270948  0.78139092     0.79000
C190        C  0.72092347  0.80154568  0.83028712     0.78000
C191        C  0.67022162  0.78571040  0.69707310     0.78400
C192        C  0.78375079  0.69086849  0.66331627     0.79500
C193        C  0.80892930  0.82770497  0.71342986     0.78600
Zn194      Zn  0.30531346  0.74813349  0.76177250     1.49700
Zn195      Zn  0.23486527  0.69799171  0.74242698     1.49400
Zn196      Zn  0.22163827  0.78228317  0.77453782     1.49100
Zn197      Zn  0.25504865  0.76867958  0.69031056     1.49500
O198        O  0.25376416  0.74974091  0.74235919    -1.82700
O199        O  0.32153570  0.69676687  0.78083799    -0.73300
O200        O  0.18857192  0.69374291  0.77384551    -0.73200
O201        O  0.25350903  0.80730851  0.81628477    -0.72700
O202        O  0.27115850  0.66215857  0.76684519    -0.73400
O203        O  0.31016736  0.78245103  0.80567156    -0.73000
O204        O  0.17890855  0.75089525  0.79872387    -0.73500
O205        O  0.21932420  0.81271781  0.68445530    -0.72900
O206        O  0.22206260  0.67967178  0.69033209    -0.73700
O207        O  0.19793336  0.82408131  0.74240992    -0.73100
O208        O  0.23822672  0.72802327  0.65341129    -0.73500
O209        O  0.30710736  0.78866275  0.67643315    -0.73400
O210        O  0.34208155  0.76879432  0.72463493    -0.73200
C211        C  0.30374772  0.66538079  0.78181795     0.78600
C212        C  0.16991290  0.71586606  0.79518944     0.79000
C213        C  0.28864074  0.80420310  0.82448225     0.78000
C214        C  0.19931555  0.83219216  0.70723211     0.78400
C215        C  0.22479637  0.69463557  0.65770887     0.79500
C216        C  0.33893056  0.78631481  0.69334601     0.78600
Zn217      Zn  0.71350156  0.28211226  0.71998077     1.49700
Zn218      Zn  0.74592912  0.26831408  0.80396049     1.49400
Zn219      Zn  0.72690568  0.19753778  0.75285161     1.49100
Zn220      Zn  0.79784883  0.24963717  0.73342812     1.49500
O221        O  0.74584523  0.24961529  0.75218533    -1.82700
O222        O  0.68757513  0.32335672  0.75181552    -0.73300
O223        O  0.72731713  0.22901297  0.84059630    -0.73200
O224        O  0.68295444  0.19220387  0.71759266    -0.72700
O225        O  0.71063495  0.31164083  0.80897117    -0.73400
O226        O  0.67277196  0.25012654  0.69485053    -0.73000
O227        O  0.70947604  0.18055325  0.80469579    -0.73500
O228        O  0.81546576  0.19728104  0.71765245    -0.72900
O229        O  0.79699844  0.28756702  0.82030791    -0.73700
O230        O  0.76640166  0.16159975  0.73369146    -0.73100
O231        O  0.83361172  0.27080525  0.77212127    -0.73500
O232        O  0.80234518  0.28352400  0.68819831    -0.73400
O233        O  0.74460910  0.30658692  0.67763634    -0.73200
C234        C  0.68942209  0.33084757  0.78714160     0.78600
C235        C  0.71230381  0.19631221  0.83698602     0.79000
C236        C  0.66446677  0.21487722  0.69647669     0.78000
C237        C  0.79932128  0.16496903  0.71948986     0.78400
C238        C  0.82924643  0.28598549  0.80448456     0.79500
C239        C  0.77964471  0.30406609  0.66909996     0.78600
Zn240      Zn  0.19865533  0.25170748  0.73450119     1.49700
Zn241      Zn  0.28224235  0.28199742  0.71989108     1.49400
Zn242      Zn  0.25014580  0.26952830  0.80534780     1.49100
Zn243      Zn  0.26914191  0.19885050  0.75416894     1.49500
O244        O  0.25039935  0.25077599  0.75325639    -1.82700
O245        O  0.19288023  0.28599573  0.69007425    -0.73300
O246        O  0.30561584  0.32463860  0.75074562    -0.73200
O247        O  0.19875924  0.28731588  0.82297483    -0.72700
O248        O  0.25106757  0.30581596  0.67725022    -0.73400
O249        O  0.16365460  0.27208901  0.77330830    -0.73000
O250        O  0.28410130  0.31368805  0.80897058    -0.73500
O251        O  0.28710920  0.18274582  0.80615360    -0.72900
O252        O  0.32421618  0.24987887  0.69616168    -0.73700
O253        O  0.27092259  0.23166669  0.84218820    -0.73100
O254        O  0.31331169  0.19249210  0.71962725    -0.73500
O255        O  0.22931484  0.16352586  0.73454432    -0.73400
O256        O  0.18103384  0.20018713  0.71779984    -0.73200
C257        C  0.21567633  0.30504752  0.66984416     0.78600
C258        C  0.30377707  0.33285103  0.78584761     0.79000
C259        C  0.16684629  0.28612475  0.80627367     0.78000
C260        C  0.28578899  0.19899217  0.83830268     0.78400
C261        C  0.33240431  0.21459199  0.69859109     0.79500
C262        C  0.19662199  0.16767066  0.71980323     0.78600
Zn263      Zn  0.74703417  0.72556208  0.20055733     1.49700
Zn264      Zn  0.71358076  0.71329316  0.28464987     1.49400
Zn265      Zn  0.79786230  0.74507329  0.27157224     1.49100
Zn266      Zn  0.72740746  0.79703018  0.25066787     1.49500
O267        O  0.74622351  0.74504473  0.25208928    -1.82700
O268        O  0.71215988  0.68158219  0.19604171    -0.73300
O269        O  0.74531927  0.68372387  0.32316335    -0.73200
O270        O  0.83489683  0.72872968  0.23145480    -0.72700
O271        O  0.68615607  0.67427652  0.25273060    -0.73400
O272        O  0.79908166  0.70840308  0.18410523    -0.73000
O273        O  0.80316317  0.70549554  0.31193514    -0.73500
O274        O  0.76480627  0.83258962  0.27512305    -0.72900
O275        O  0.67344173  0.74571314  0.31124713    -0.73700
O276        O  0.81236696  0.79631305  0.29445774    -0.73100
O277        O  0.68147934  0.80142453  0.28290554    -0.73500
O278        O  0.71242091  0.81449859  0.19771355    -0.73400
O279        O  0.72694370  0.76380216  0.16371573    -0.73200
C280        C  0.68921689  0.66482750  0.21808060     0.78600
C281        C  0.78089686  0.68346326  0.32976114     0.79000
C282        C  0.83149953  0.71239879  0.19943625     0.78000
C283        C  0.79595426  0.82859173  0.29299495     0.78400
C284        C  0.66385742  0.78036788  0.30618069     0.79500
C285        C  0.71345221  0.79724158  0.16602170     0.78600
Zn286      Zn  0.24860719  0.73628621  0.19377271     1.49700
Zn287      Zn  0.26626102  0.80656779  0.24640627     1.49400
Zn288      Zn  0.19502712  0.75307433  0.26229112     1.49100
Zn289      Zn  0.27834392  0.72096730  0.27854324     1.49500
O290        O  0.24751191  0.75416012  0.24566513    -1.82700
O291        O  0.26916884  0.77529698  0.15883043    -0.73300
O292        O  0.22624812  0.84170521  0.26696539    -0.73200
O293        O  0.15936792  0.73679383  0.22099400    -0.72700
O294        O  0.28421643  0.82479573  0.19458617    -0.73400
O295        O  0.19780813  0.72001305  0.17440436    -0.73000
O296        O  0.17870652  0.80332620  0.28260693    -0.73500
O297        O  0.24546030  0.69625098  0.31969489    -0.72900
O298        O  0.31047459  0.81061595  0.28181538    -0.73700
O299        O  0.18811372  0.71692680  0.30480612    -0.73100
O300        O  0.32035152  0.75205704  0.30355436    -0.73500
O301        O  0.30307905  0.67913567  0.24705422    -0.73400
O302        O  0.28257982  0.69200938  0.18902497    -0.73200
C303        C  0.28305520  0.80840972  0.16244166     0.78600
C304        C  0.19388065  0.83603889  0.28181778     0.79000
C305        C  0.16478638  0.72276306  0.18828310     0.78000
C306        C  0.20978569  0.69722536  0.32573870     0.78400
C307        C  0.32907791  0.78727420  0.30213513     0.79500
C308        C  0.30215916  0.67201205  0.21164454     0.78600
Zn309      Zn  0.72105551  0.28693424  0.28538298     1.49700
Zn310      Zn  0.73351984  0.20237939  0.25407034     1.49400
Zn311      Zn  0.75261665  0.27184686  0.20160597     1.49100
Zn312      Zn  0.80497202  0.25320386  0.27258464     1.49500
O313        O  0.75292935  0.25397260  0.25368887    -1.82700
O314        O  0.68034443  0.25583118  0.31225435    -0.73300
O315        O  0.71300101  0.18541082  0.20351935    -0.73200
O316        O  0.71869057  0.31650895  0.19602072    -0.72700
O317        O  0.69127152  0.19763331  0.29050160    -0.73400
O318        O  0.69503018  0.32702105  0.25316094    -0.73000
O319        O  0.73047904  0.23296858  0.16652353    -0.73500
O320        O  0.84077511  0.27175491  0.23288035    -0.72900
O321        O  0.77259787  0.16608565  0.27230339    -0.73700
O322        O  0.80436999  0.28819012  0.18422554    -0.73100
O323        O  0.82156020  0.20085306  0.29055171    -0.73500
O324        O  0.81062870  0.28961930  0.31566422    -0.73400
O325        O  0.75335863  0.31395503  0.32481531    -0.73200
C326        C  0.67268822  0.22037664  0.31123138     0.78600
C327        C  0.71408975  0.20107812  0.17112726     0.79000
C328        C  0.69725754  0.33510411  0.21806936     0.78000
C329        C  0.83671244  0.28606665  0.20006171     0.78400
C330        C  0.80516262  0.16872850  0.28749520     0.79500
C331        C  0.78845511  0.31187984  0.33331797     0.78600
N332        N  0.99896280  0.99961913  0.44360355    -0.35200
N333        N  0.05767511  0.00312721  0.50120614    -0.55800
N334        N  0.99877506  0.00370969  0.55912800    -0.35200
N335        N  0.94011764  0.00214548  0.50157301    -0.55800
C336        C  0.02976360  0.00630492  0.42182710     0.28400
C337        C  0.96793732  0.00628634  0.42199970     0.28400
C338        C  0.02969322  0.01130112  0.58055400     0.28400
C339        C  0.96785090  0.01038979  0.58074792     0.28400
C340        C  0.08005893  0.99735507  0.47073303     0.37000
C341        C  0.07996898  0.99950880  0.53215818     0.37000
C342        C  0.91798284  0.99594301  0.47091529     0.37000
C343        C  0.91786807  0.99757699  0.53235927     0.37000
C344        C  0.01809723  0.01703731  0.38587042    -0.20500
C345        C  0.97922153  0.01704204  0.38598343    -0.20500
C346        C  0.01821657  0.02278659  0.61628979    -0.20500
C347        C  0.97932551  0.02220581  0.61640779    -0.20500
C348        C  0.11700288  0.99076221  0.48233684    -0.21500
C349        C  0.11694511  0.99207831  0.52125742    -0.21500
C350        C  0.88121863  0.98815824  0.48226804    -0.21500
C351        C  0.88116693  0.98913335  0.52117779    -0.21500
C352        C  0.06803696  0.00068277  0.43264957    -0.16900
C353        C  0.92984301  0.00003490  0.43289658    -0.16900
C354        C  0.92973996  0.00328187  0.57024000    -0.16900
C355        C  0.06788790  0.00509644  0.56993186    -0.16900
H356        H  0.03564568  0.02360360  0.36169752     0.16000
H357        H  0.96142914  0.02353972  0.36188433     0.16000
H358        H  0.03592772  0.03008112  0.64022594     0.16000
H359        H  0.96164537  0.02898640  0.64042204     0.16000
H360        H  0.14150259  0.98602051  0.46461600     0.14300
H361        H  0.14142738  0.98853926  0.53941005     0.14300
H362        H  0.85683601  0.98287728  0.46440944     0.14300
H363        H  0.85678290  0.98470430  0.53913537     0.14300
H364        H  0.99906115  0.98672440  0.46999206     0.27600
H365        H  0.99891670  0.99005067  0.53315464     0.27600
C366        C  0.12725253  0.03490135  0.35359500     0.81600
N367        N  0.13752599  0.00166222  0.33754557    -0.76700
C368        C  0.12780611  0.96779515  0.35282412     0.84100
N369        N  0.10710531  0.96735145  0.38531690    -0.76600
C370        C  0.09682758  0.00068490  0.40218106     0.84200
N371        N  0.10720703  0.03437445  0.38632358    -0.78300
Zn372      Zn  0.23142221  0.29917327  0.24938089     1.49700
Zn373      Zn  0.21859761  0.21424141  0.21699285     1.49400
Zn374      Zn  0.30212695  0.24869817  0.22852255     1.49100
Zn375      Zn  0.25218444  0.22917968  0.30057505     1.49500
O376        O  0.25084055  0.24747967  0.24861755    -1.82700
O377        O  0.18804562  0.30319298  0.21406355    -0.73300
O378        O  0.25049971  0.18624172  0.17754459    -0.73200
O379        O  0.31849422  0.30121902  0.21142187    -0.72700
O380        O  0.17828033  0.24579401  0.18979111    -0.73400
O381        O  0.26979113  0.33612491  0.22990322    -0.73000
O382        O  0.30681381  0.21322404  0.18479123    -0.73500
O383        O  0.30446952  0.21161873  0.31625513    -0.72900
O384        O  0.19204755  0.17484682  0.24988093    -0.73700
O385        O  0.33879542  0.22862910  0.26664612    -0.73100
O386        O  0.21721155  0.18526003  0.30654578    -0.73500
O387        O  0.23218596  0.26830330  0.33673749    -0.73400
O388        O  0.21279668  0.31598542  0.30084168    -0.73200
C389        C  0.16998945  0.28105356  0.19211055     0.78600
C390        C  0.28524496  0.18956988  0.16813983     0.79000
C391        C  0.30218010  0.33335962  0.21444776     0.78000
C392        C  0.33617537  0.21362978  0.29927162     0.78400
C393        C  0.19485112  0.16695452  0.28501697     0.79500
C394        C  0.21564998  0.30026993  0.33314181     0.78600
C395        C  0.97129896  0.35252570  0.13390303     0.81600
N396        N  0.97030190  0.38462549  0.11239062    -0.76700
C397        C  0.00284610  0.39949373  0.09799987     0.84100
N398        N  0.03654163  0.38207358  0.10511115    -0.76600
C399        C  0.03765935  0.34983297  0.12628765     0.84200
N400        N  0.00508160  0.33550526  0.14031211    -0.78300
C401        C  0.35136096  0.12648780  0.97086081     0.81600
N402        N  0.33396234  0.13080741  0.00472375    -0.76700
C403        C  0.34953280  0.11721574  0.03700742     0.84100
N404        N  0.38272708  0.09772774  0.03534529    -0.76600
C405        C  0.39996198  0.09177171  0.00150117     0.84200
N406        N  0.38429414  0.10632589  0.96934887    -0.78300
C407        C  0.47252954  0.14453459  0.36025915     0.81600
N408        N  0.50616509  0.16186698  0.35398857    -0.76700
C409        C  0.53879041  0.14861227  0.36922397     0.84100
N410        N  0.53774397  0.11681275  0.39107221    -0.76600
C411        C  0.50424556  0.09871628  0.39736203     0.84200
N412        N  0.47172874  0.11277396  0.38212031    -0.78300
C413        C  0.86125235  0.96388034  0.36156253     0.81600
N414        N  0.85156874  0.99678829  0.34414385    -0.76700
C415        C  0.86540101  0.03081881  0.35563383     0.84100
N416        N  0.89013378  0.03170384  0.38512897    -0.76600
C417        C  0.90079605  0.99888981  0.40262660     0.84200
N418        N  0.88646518  0.96491618  0.39070879    -0.78300
C419        C  0.64625588  0.13167022  0.97289212     0.81600
N420        N  0.66022209  0.14292527  0.00669272    -0.76700
C421        C  0.64391513  0.13258982  0.03966912     0.84100
N422        N  0.61340586  0.10898369  0.03909927    -0.76600
C423        C  0.59884328  0.09722172  0.00529624     0.84200
N424        N  0.61524821  0.10872278  0.97234442    -0.78300
C425        C  0.61972209  0.53260158  0.15291080     0.81600
N426        N  0.60121642  0.53187847  0.11922188    -0.76700
C427        C  0.59278837  0.49820625  0.10232314     0.84100
N428        N  0.60363268  0.46506561  0.11899623    -0.76600
C429        C  0.62277112  0.46562093  0.15247403     0.84200
N430        N  0.63023573  0.49943394  0.16917343    -0.78300
C431        C  0.84920406  0.37114307  0.53634117     0.81600
N432        N  0.88278364  0.39021309  0.53848449    -0.76700
C433        C  0.90099624  0.40165266  0.50651017     0.84100
N434        N  0.88539069  0.39400689  0.47217317    -0.76600
C435        C  0.85177988  0.37534972  0.46960185     0.84200
N436        N  0.83401728  0.36418040  0.50172503    -0.78300
C437        C  0.36458696  0.53707064  0.14361893     0.81600
N438        N  0.38664084  0.53604513  0.11218359    -0.76700
C439        C  0.39664389  0.50204177  0.09669757     0.84100
N440        N  0.38432022  0.46905426  0.11267069    -0.76600
C441        C  0.36168347  0.46995382  0.14373393     0.84200
N442        N  0.35230216  0.50402615  0.15876692    -0.78300
C443        C  0.96599445  0.64378052  0.13406231     0.81600
N444        N  0.96670325  0.61197421  0.11206700    -0.76700
C445        C  0.00040842  0.59904426  0.09816067     0.84100
N446        N  0.03292328  0.61852598  0.10551956    -0.76600
C447        C  0.03213989  0.65062801  0.12682459     0.84200
N448        N  0.99866784  0.66259968  0.14077564    -0.78300
C449        C  0.35667795  0.86646847  0.95938848     0.81600
N450        N  0.38995496  0.88576178  0.96062245    -0.76700
C451        C  0.40546318  0.89574336  0.99441389     0.84100
N452        N  0.38785992  0.88558315  0.02713563    -0.76600
C453        C  0.35495252  0.86538378  0.02622525     0.84200
N454        N  0.33956737  0.85652110  0.99215391    -0.78300
C455        C  0.46430999  0.85025473  0.37087931     0.81600
N456        N  0.49778275  0.83355262  0.36218714    -0.76700
C457        C  0.53121326  0.84922960  0.37271076     0.84100
N458        N  0.53122402  0.88230117  0.39259791    -0.76600
C459        C  0.49797016  0.89934062  0.40195780     0.84200
N460        N  0.46458020  0.88327201  0.39102092    -0.78300
C461        C  0.15340597  0.62759481  0.52601592     0.81600
N462        N  0.12071327  0.60721363  0.52901832    -0.76700
C463        C  0.10055259  0.59744599  0.49750548     0.84100
N464        N  0.11285667  0.60890435  0.46282774    -0.76600
C465        C  0.14578494  0.62872432  0.45970512     0.84200
N466        N  0.16572433  0.63750070  0.49119147    -0.78300
C467        C  0.65314966  0.86914647  0.96259847     0.81600
N468        N  0.62130171  0.89095336  0.96285660    -0.76700
C469        C  0.60427517  0.90000011  0.99620853     0.84100
N470        N  0.61900333  0.88680569  0.02934326    -0.76600
C471        C  0.65036055  0.86431859  0.02920630     0.84200
N472        N  0.66729952  0.85618664  0.99582005    -0.78300
C473        C  0.14931992  0.36899929  0.53406795     0.81600
N474        N  0.11714991  0.39024451  0.53386886    -0.76700
C475        C  0.10049906  0.40053994  0.50062009     0.84100
N476        N  0.11598916  0.38904327  0.46719756    -0.76600
C477        C  0.14764010  0.36687016  0.46726230     0.84200
N478        N  0.16419932  0.35777180  0.50067589    -0.78300
C479        C  0.96391180  0.35519097  0.86718133     0.81600
N480        N  0.96413739  0.38560292  0.89094342    -0.76700
C481        C  0.99772706  0.40109767  0.90226567     0.84100
N482        N  0.03102513  0.38604504  0.88997561    -0.76600
C483        C  0.03089062  0.35588718  0.86601172     0.84200
N484        N  0.99730496  0.34109854  0.85507000    -0.78300
C485        C  0.13004562  0.03455641  0.64948656     0.81600
N486        N  0.10845053  0.03622052  0.61759211    -0.76700
C487        C  0.09642061  0.00354921  0.60064375     0.84100
N488        N  0.10648000  0.96921709  0.61539969    -0.76600
C489        C  0.12772095  0.96750301  0.64747523     0.84200
N490        N  0.13864448  0.00017664  0.66427041    -0.78300
C491        C  0.46512023  0.15107442  0.62587233     0.81600
N492        N  0.46524802  0.11865035  0.60479808    -0.76700
C493        C  0.49862909  0.10357861  0.59267768     0.84100
N494        N  0.53180765  0.12059927  0.60226425    -0.76600
C495        C  0.53190242  0.15281519  0.62341312     0.84200
N496        N  0.49850833  0.16803702  0.63463777    -0.78300
C497        C  0.36462404  0.53415275  0.85762810     0.81600
N498        N  0.38995789  0.53361323  0.88645695    -0.76700
C499        C  0.40277590  0.49976218  0.89989371     0.84100
N500        N  0.39118968  0.46662891  0.88365306    -0.76600
C501        C  0.36623099  0.46728557  0.85428829     0.84200
N502        N  0.35297656  0.50112749  0.84205939    -0.78300
C503        C  0.86899164  0.96555255  0.64722380     0.81600
N504        N  0.85661652  0.99825396  0.66303098    -0.76700
C505        C  0.86603130  0.03255861  0.64852404     0.84100
N506        N  0.88883068  0.03430021  0.61761127    -0.76600
C507        C  0.90113126  0.00161865  0.60091679     0.84200
N508        N  0.89103584  0.96728950  0.61572798    -0.78300
C509        C  0.97173520  0.64344682  0.86635947     0.81600
N510        N  0.00411649  0.66038051  0.85475201    -0.76700
C511        C  0.03848201  0.64690292  0.86550634     0.84100
N512        N  0.04018721  0.61630455  0.88921555    -0.76600
C513        C  0.00768890  0.59924733  0.90133524     0.84200
N514        N  0.97355361  0.61258123  0.88933765    -0.78300
C515        C  0.47236994  0.86279670  0.63675722     0.81600
N516        N  0.50591282  0.84945526  0.64972101    -0.76700
C517        C  0.53916408  0.86315189  0.63654004     0.84100
N518        N  0.53894974  0.89103432  0.60993441    -0.76600
C519        C  0.50534850  0.90535790  0.59737668     0.84200
N520        N  0.47211284  0.89083567  0.61039377    -0.78300
C521        C  0.62634847  0.53114010  0.85165353     0.81600
N522        N  0.63156695  0.49674719  0.83529723    -0.76700
C523        C  0.62150672  0.46430246  0.85308784     0.84100
N524        N  0.60455332  0.46630793  0.88747724    -0.76600
C525        C  0.59734786  0.50063071  0.90366914     0.84200
N526        N  0.60858620  0.53312779  0.88577128    -0.78300
C527        C  0.84915458  0.61728973  0.46178672     0.81600
N528        N  0.88361144  0.60002927  0.46406258    -0.76700
C529        C  0.90087954  0.59517390  0.49822873     0.84100
N530        N  0.88368733  0.60804878  0.53009438    -0.76600
C531        C  0.84926269  0.62515569  0.52815981     0.84200
N532        N  0.83220487  0.62941286  0.49399318    -0.78300
C533        C  0.18082971  0.35450019  0.36538860     0.25000
C534        C  0.19833874  0.31837014  0.36712584    -0.23100
C535        C  0.19765024  0.29850261  0.40174017     0.19900
C536        C  0.18051714  0.31420112  0.43353646     0.25000
C537        C  0.16348553  0.35033518  0.43206198    -0.23000
C538        C  0.16357732  0.37029500  0.39757972     0.19900
F539        F  0.14802715  0.40551832  0.39525776    -0.13000
F540        F  0.18047339  0.37474864  0.33269533    -0.15400
F541        F  0.18003265  0.29333264  0.46585604    -0.15400
F542        F  0.21307658  0.26329543  0.40510238    -0.13000
C543        C  0.30410925  0.40409400  0.20621544     0.25000
C544        C  0.31992864  0.36820421  0.19844143    -0.23100
C545        C  0.35079798  0.36614150  0.17323661     0.19900
C546        C  0.36453191  0.39899167  0.15537213     0.25000
C547        C  0.34770467  0.43464272  0.16225585    -0.23000
C548        C  0.31742421  0.43662283  0.18816186     0.19900
F549        F  0.29966714  0.47001388  0.19570829    -0.13000
F550        F  0.27523659  0.40804246  0.23122351    -0.15400
F551        F  0.39441732  0.39574579  0.13150995    -0.15400
F552        F  0.36734376  0.33228439  0.16513863    -0.13000
C553        C  0.40125124  0.15125746  0.35864338     0.25000
C554        C  0.43723121  0.16193000  0.34504165    -0.23100
C555        C  0.43935094  0.19060925  0.31719901     0.19900
C556        C  0.40666077  0.20783496  0.30325581     0.25000
C557        C  0.37073694  0.19716500  0.31670212    -0.23000
C558        C  0.36841394  0.16890385  0.34485617     0.19900
F559        F  0.33432525  0.15750315  0.35845825    -0.13000
F560        F  0.39759775  0.12388019  0.38545294    -0.15400
F561        F  0.41044323  0.23519162  0.27641004    -0.15400
F562        F  0.47308143  0.20197432  0.30268917    -0.13000
C563        C  0.35679190  0.14492200  0.10144439     0.25000
C564        C  0.33326791  0.12929954  0.07349812    -0.23100
C565        C  0.29375340  0.13010385  0.07862315     0.19900
C566        C  0.27795529  0.14806759  0.11025116     0.25000
C567        C  0.30144786  0.16613472  0.13705819    -0.23000
C568        C  0.34114957  0.16321094  0.13280347     0.19900
F569        F  0.36515091  0.17896446  0.15845778    -0.13000
F570        F  0.39499891  0.14497606  0.09708680    -0.15400
F571        F  0.23966911  0.14926468  0.11355233    -0.15400
F572        F  0.27036550  0.11426470  0.05244705    -0.13000
C573        C  0.10555411  0.35364743  0.14604298     0.25000
C574        C  0.07378542  0.33150533  0.13694705    -0.23100
C575        C  0.07544841  0.29180291  0.14224857     0.19900
C576        C  0.10747881  0.27487101  0.15843204     0.25000
C577        C  0.13838104  0.29738972  0.16977241    -0.23000
C578        C  0.13749860  0.33681162  0.16229317     0.19900
F579        F  0.16719971  0.35946786  0.17176095    -0.13000
F580        F  0.10480495  0.39199282  0.14170640    -0.15400
F581        F  0.10721375  0.23683348  0.16500004    -0.15400
F582        F  0.04557347  0.26941908  0.13267432    -0.13000
C583        C  0.14860387  0.10271914  0.35758387     0.25000
C584        C  0.13926316  0.07086993  0.33556164    -0.23100
C585        C  0.14450097  0.07258187  0.29605375     0.19900
C586        C  0.16103632  0.10446544  0.27928070     0.25000
C587        C  0.17260374  0.13540049  0.30162806    -0.23000
C588        C  0.16502162  0.13469395  0.34080364     0.19900
F589        F  0.17417945  0.16471900  0.36316472    -0.13000
F590        F  0.14391214  0.10217999  0.39567867    -0.15400
F591        F  0.16745098  0.10410442  0.24143087    -0.15400
F592        F  0.13416211  0.04308653  0.27352916    -0.13000
C593        C  0.84327662  0.34098135  0.36839431     0.25000
C594        C  0.80395946  0.33438999  0.36533140    -0.23100
C595        C  0.78023766  0.34666424  0.39480880     0.19900
C596        C  0.79576188  0.36162029  0.42805636     0.25000
C597        C  0.83528520  0.36518570  0.43235085    -0.23000
C598        C  0.85875403  0.35631528  0.40151554     0.19900
F599        F  0.89693364  0.36027843  0.40410756    -0.13000
F600        F  0.86701326  0.33172015  0.33966682    -0.15400
F601        F  0.77201839  0.37196270  0.45638838    -0.15400
F602        F  0.74208487  0.34238144  0.39244126    -0.13000
C603        C  0.66543198  0.39831220  0.22468604     0.25000
C604        C  0.67498416  0.36692686  0.20215206    -0.23100
C605        C  0.66458647  0.36697541  0.16362040     0.19900
C606        C  0.64620824  0.39834083  0.14768345     0.25000
C607        C  0.63792330  0.43041258  0.16990822    -0.23000
C608        C  0.64704724  0.42964020  0.20881837     0.19900
F609        F  0.63871666  0.45946692  0.23169087    -0.13000
F610        F  0.67547887  0.39957332  0.26176794    -0.15400
F611        F  0.63817142  0.39784656  0.11011358    -0.15400
F612        F  0.67254323  0.33674607  0.14110977    -0.13000
C613        C  0.68806379  0.20436428  0.10529078     0.25000
C614        C  0.69486243  0.18294557  0.13828585    -0.23100
C615        C  0.68188586  0.14494363  0.13960502     0.19900
C616        C  0.66386244  0.12854321  0.10809675     0.25000
C617        C  0.65851115  0.14984666  0.07490071    -0.23000
C618        C  0.67030481  0.18800242  0.07413094     0.19900
F619        F  0.66442743  0.20984617  0.04297457    -0.13000
F620        F  0.69808428  0.24157660  0.10302633    -0.15400
F621        F  0.65321960  0.09148235  0.10948584    -0.15400
F622        F  0.68723719  0.12335799  0.17100003    -0.13000
C623        C  0.85624282  0.13472760  0.32504894     0.25000
C624        C  0.82298174  0.13358521  0.30285584    -0.23100
C625        C  0.80520714  0.09820591  0.29704161     0.19900
C626        C  0.81947729  0.06526787  0.31348375     0.25000
C627        C  0.85185423  0.06632991  0.33691038    -0.23000
C628        C  0.87037077  0.10151893  0.34209958     0.19900
F629        F  0.90222786  0.10398425  0.36354778    -0.13000
F630        F  0.87484853  0.16799970  0.33092156    -0.15400
F631        F  0.80049906  0.03240782  0.30680705    -0.15400
F632        F  0.77329289  0.09507574  0.27571726    -0.13000
C633        C  0.60662882  0.22504231  0.33588580     0.25000
C634        C  0.64061983  0.20467130  0.33294818    -0.23100
C635        C  0.64217932  0.16711542  0.34673150     0.19900
C636        C  0.60961251  0.14932287  0.36065524     0.25000
C637        C  0.57477219  0.16873422  0.36078870    -0.23000
C638        C  0.57406031  0.20731958  0.34969126     0.19900
F639        F  0.54151097  0.22782229  0.35112469    -0.13000
F640        F  0.60412838  0.26126620  0.32283289    -0.15400
F641        F  0.61188297  0.11246282  0.37182276    -0.15400
F642        F  0.67509429  0.14716338  0.34557704    -0.13000
C643        C  0.93855919  0.30201231  0.17238662     0.25000
C644        C  0.93625935  0.33521655  0.14985721    -0.23100
C645        C  0.90022420  0.35117711  0.14300534     0.19900
C646        C  0.86763666  0.33443499  0.15819231     0.25000
C647        C  0.87035497  0.30167547  0.18085438    -0.23000
C648        C  0.90606574  0.28557693  0.18754505     0.19900
F649        F  0.90963496  0.25360569  0.20882426    -0.13000
F650        F  0.97225551  0.28523147  0.18046997    -0.15400
F651        F  0.83357428  0.35129409  0.15204534    -0.15400
F652        F  0.89629327  0.38337278  0.12220091    -0.13000
C653        C  0.13765420  0.66241624  0.39803785     0.25000
C654        C  0.16052892  0.64151347  0.42286550    -0.23100
C655        C  0.19919911  0.63697012  0.41461331     0.19900
C656        C  0.21508763  0.65388179  0.38253715     0.25000
C657        C  0.19263589  0.67621119  0.35814356    -0.23000
C658        C  0.15344948  0.67973061  0.36611396     0.19900
F659        F  0.13036475  0.70118426  0.34395827    -0.13000
F660        F  0.10049677  0.66826928  0.40601229    -0.15400
F661        F  0.25267176  0.64909911  0.37610100    -0.15400
F662        F  0.22184520  0.61654787  0.43815377    -0.13000
C663        C  0.36175457  0.83860053  0.33903938     0.25000
C664        C  0.36214107  0.80172846  0.32357461    -0.23100
C665        C  0.39531908  0.77997534  0.32636770     0.19900
C666        C  0.42801844  0.79532606  0.34270786     0.25000
C667        C  0.42832770  0.83293345  0.35690348    -0.23000
C668        C  0.39435915  0.85398389  0.35573111     0.19900
F669        F  0.39277736  0.88997238  0.36949971    -0.13000
F670        F  0.32972811  0.85994738  0.33779432    -0.15400
F671        F  0.45952775  0.77323838  0.34394977    -0.15400
F672        F  0.39680234  0.74443684  0.31144176    -0.13000
C673        C  0.28535197  0.81655740  0.09239771     0.25000
C674        C  0.29907515  0.82684120  0.12831413    -0.23100
C675        C  0.33029742  0.85159199  0.13069164     0.19900
C676        C  0.34845062  0.86439289  0.09776490     0.25000
C677        C  0.33539123  0.85311970  0.06164875    -0.23000
C678        C  0.30311152  0.82940319  0.05963540     0.19900
F679        F  0.28877569  0.81755098  0.02596831    -0.13000
F680        F  0.25464247  0.79353579  0.08880278    -0.15400
F681        F  0.37920971  0.88724424  0.10152363    -0.15400
F682        F  0.34442244  0.86204779  0.16489218    -0.13000
C683        C  0.13558183  0.67421743  0.14553009     0.25000
C684        C  0.13212718  0.70771901  0.16698459    -0.23100
C685        C  0.09646028  0.72475284  0.17072248     0.19900
C686        C  0.06440934  0.70739847  0.15547132     0.25000
C687        C  0.06712560  0.67180958  0.13704352    -0.23000
C688        C  0.10334859  0.65616597  0.13100927     0.19900
F689        F  0.10767609  0.62252508  0.11272135    -0.13000
F690        F  0.16989367  0.65749434  0.14074070    -0.15400
F691        F  0.03062596  0.72535424  0.15968217    -0.15400
F692        F  0.09247601  0.75809091  0.18968951    -0.13000
C693        C  0.33449776  0.63961041  0.15753901     0.25000
C694        C  0.32316212  0.63935534  0.19577998    -0.23100
C695        C  0.32920738  0.60648840  0.21743205     0.19900
C696        C  0.34435173  0.57390216  0.20074860     0.25000
C697        C  0.35354518  0.57333118  0.16190412    -0.23000
C698        C  0.34948093  0.60691896  0.14074869     0.19900
F699        F  0.35809347  0.60772118  0.10335674    -0.13000
F700        F  0.33035587  0.67137329  0.13606538    -0.15400
F701        F  0.34936979  0.54261176  0.22268989    -0.15400
F702        F  0.31850061  0.60506387  0.25426253    -0.13000
C703        C  0.15778194  0.86518864  0.33522745     0.25000
C704        C  0.17376850  0.86820872  0.29895932    -0.23100
C705        C  0.17179780  0.90274656  0.27959157     0.19900
C706        C  0.15500716  0.93426507  0.29639208     0.25000
C707        C  0.14090400  0.93241128  0.33379624    -0.23000
C708        C  0.14183106  0.89714890  0.35275469     0.19900
F709        F  0.12881209  0.89378208  0.38868401    -0.13000
F710        F  0.15942121  0.83179766  0.35445489    -0.15400
F711        F  0.15292860  0.96666535  0.27568810    -0.15400
F712        F  0.18601857  0.90593731  0.24406700    -0.13000
C713        C  0.77457269  0.64465331  0.38937602     0.25000
C714        C  0.79719200  0.65856962  0.35973878    -0.23100
C715        C  0.83656156  0.65154404  0.36099589     0.19900
C716        C  0.85334451  0.63540246  0.39312131     0.25000
C717        C  0.83117251  0.62609896  0.42475748    -0.23000
C718        C  0.79143392  0.62904419  0.42175374     0.19900
F719        F  0.76883701  0.61787516  0.45071822    -0.13000
F720        F  0.73628021  0.64802186  0.38811637    -0.15400
F721        F  0.89158834  0.63148253  0.39413776    -0.15400
F722        F  0.85918350  0.66149195  0.33160281    -0.13000
C723        C  0.65587978  0.60255134  0.22568236     0.25000
C724        C  0.66632370  0.63333759  0.20268395    -0.23100
C725        C  0.65685461  0.63267078  0.16397423     0.19900
C726        C  0.63958975  0.60076032  0.14804771     0.25000
C727        C  0.63163934  0.56879322  0.17051141    -0.23000
C728        C  0.63859392  0.57061670  0.20976913     0.19900
F729        F  0.62943183  0.54112986  0.23277560    -0.13000
F730        F  0.66434180  0.60232822  0.26317460    -0.15400
F731        F  0.63273521  0.60048371  0.11024888    -0.15400
F732        F  0.66506539  0.66266923  0.14123983    -0.13000
C733        C  0.70143771  0.79710517  0.09583848     0.25000
C734        C  0.69782471  0.81542452  0.13115541    -0.23100
C735        C  0.67767546  0.85007807  0.13265127     0.19900
C736        C  0.66192779  0.86597001  0.09973293     0.25000
C737        C  0.66587257  0.84759600  0.06460348    -0.23000
C738        C  0.68571052  0.81290713  0.06320167     0.19900
F739        F  0.68929315  0.79347005  0.03020674    -0.13000
F740        F  0.72001808  0.76346874  0.09252115    -0.15400
F741        F  0.64349483  0.89974317  0.10220815    -0.15400
F742        F  0.67271557  0.86853936  0.16598043    -0.13000
C743        C  0.62924646  0.83710904  0.33166706     0.25000
C744        C  0.63156691  0.79727831  0.32716781    -0.23100
C745        C  0.60183688  0.77458077  0.34098813     0.19900
C746        C  0.56978129  0.79146953  0.35713552     0.25000
C747        C  0.56694989  0.83132679  0.36012511    -0.23000
C748        C  0.59739520  0.85387327  0.34806446     0.19900
F749        F  0.59551783  0.89237716  0.35011618    -0.13000
F750        F  0.65761235  0.86015599  0.31959275    -0.15400
F751        F  0.54125327  0.76878471  0.36949550    -0.15400
F752        F  0.60287932  0.73617055  0.33735474    -0.13000
C753        C  0.79200968  0.89661159  0.31457988     0.25000
C754        C  0.81252740  0.86224607  0.31288951    -0.23100
C755        C  0.84822756  0.86065522  0.33105685     0.19900
C756        C  0.86371523  0.89314806  0.34842645     0.25000
C757        C  0.84385193  0.92782868  0.34805217    -0.23000
C758        C  0.80735162  0.92867804  0.33199613     0.19900
F759        F  0.78598480  0.96072203  0.33336077    -0.13000
F760        F  0.75675306  0.89959684  0.29940633    -0.15400
F761        F  0.89870238  0.89095676  0.36429157    -0.15400
F762        F  0.86858708  0.82792951  0.33153960    -0.13000
C763        C  0.93302106  0.68085268  0.18428502     0.25000
C764        C  0.93068941  0.65944616  0.15065808    -0.23100
C765        C  0.89546745  0.65646145  0.13226177     0.19900
C766        C  0.86332173  0.67456683  0.14723661     0.25000
C767        C  0.86579405  0.69599463  0.18103196    -0.23000
C768        C  0.90134487  0.69920008  0.19891076     0.19900
F769        F  0.90583338  0.71993652  0.23101190    -0.13000
F770        F  0.96615578  0.68381089  0.20369117    -0.15400
F771        F  0.82988965  0.67104702  0.12850673    -0.15400
F772        F  0.89228546  0.63697051  0.09927009    -0.13000
C773        C  0.31785747  0.40164894  0.78397815     0.25000
C774        C  0.32365339  0.36614102  0.80069413    -0.23100
C775        C  0.34447896  0.36340903  0.83446955     0.19900
C776        C  0.35921265  0.39601423  0.85161261     0.25000
C777        C  0.35291208  0.43204551  0.83536416    -0.23000
C778        C  0.33223717  0.43431302  0.80102400     0.19900
F779        F  0.32492727  0.46815464  0.78402301    -0.13000
F780        F  0.29608487  0.40500785  0.75241084    -0.15400
F781        F  0.37830295  0.39223412  0.88477293    -0.15400
F782        F  0.34992091  0.32908689  0.85122788    -0.13000
C783        C  0.36811033  0.15895024  0.67124083     0.25000
C784        C  0.36495377  0.19857268  0.67714889    -0.23100
C785        C  0.39396660  0.22234333  0.66359873     0.19900
C786        C  0.42586860  0.20687707  0.64594728     0.25000
C787        C  0.42947671  0.16729000  0.64105808    -0.23000
C788        C  0.39993740  0.14355242  0.65329769     0.19900
F789        F  0.40259303  0.10522080  0.64958829    -0.13000
F790        F  0.34055398  0.13482772  0.68311739    -0.15400
F791        F  0.45342798  0.23081271  0.63374907    -0.15400
F792        F  0.39226062  0.26057622  0.66855466    -0.13000
C793        C  0.13157740  0.10573377  0.65980806     0.25000
C794        C  0.14567625  0.06916361  0.66793910    -0.23100
C795        C  0.17535490  0.06559966  0.69458666     0.19900
C796        C  0.19076574  0.09742419  0.71208151     0.25000
C797        C  0.17733033  0.13400873  0.70350562    -0.23000
C798        C  0.14718380  0.13783467  0.67747308     0.19900
F799        F  0.13333621  0.17264905  0.66825630    -0.13000
F800        F  0.10266982  0.11061645  0.63487911    -0.15400
F801        F  0.21927677  0.09209317  0.73740835    -0.15400
F802        F  0.19054376  0.03127275  0.70349851    -0.13000
C803        C  0.10216847  0.34704976  0.86738752     0.25000
C804        C  0.06637360  0.33804760  0.85199275    -0.23100
C805        C  0.06441751  0.31071547  0.82280919     0.19900
C806        C  0.09680821  0.29280674  0.80969224     0.25000
C807        C  0.13261863  0.30231130  0.82425549    -0.23000
C808        C  0.13500690  0.32941337  0.85355811     0.19900
F809        F  0.16911348  0.33980341  0.86807183    -0.13000
F810        F  0.10563449  0.37305407  0.89555517    -0.15400
F811        F  0.09280097  0.26621977  0.78209656    -0.15400
F812        F  0.03119861  0.30154809  0.80571456    -0.13000
C813        C  0.14653623  0.35446833  0.60381671     0.25000
C814        C  0.16743669  0.35634923  0.57001394    -0.23100
C815        C  0.20554525  0.34398665  0.57044937     0.19900
C816        C  0.22179502  0.32907954  0.60340065     0.25000
C817        C  0.20027302  0.32550903  0.63653437    -0.23000
C818        C  0.16265713  0.33893563  0.63655885     0.19900
F819        F  0.14115650  0.33661346  0.66826748    -0.13000
F820        F  0.10987936  0.36605568  0.60496589    -0.15400
F821        F  0.25805073  0.31625219  0.60222451    -0.15400
F822        F  0.22720669  0.34567764  0.53881714    -0.13000
C823        C  0.30263813  0.16879908  0.93969164     0.25000
C824        C  0.33475081  0.14490534  0.93653123    -0.23100
C825        C  0.35072523  0.13954162  0.90036945     0.19900
C826        C  0.33460464  0.15679646  0.86843156     0.25000
C827        C  0.30237832  0.18003446  0.87183248    -0.23000
C828        C  0.28696270  0.18626821  0.90784399     0.19900
F829        F  0.25622563  0.20904490  0.91232551    -0.13000
F830        F  0.28616528  0.17585279  0.97363330    -0.15400
F831        F  0.35142684  0.15185735  0.83429360    -0.15400
F832        F  0.38215642  0.11786630  0.89564414    -0.13000
C833        C  0.77638933  0.32377812  0.60102925     0.25000
C834        C  0.79497410  0.32480879  0.63611402    -0.23100
C835        C  0.83024290  0.34311818  0.63883778     0.19900
C836        C  0.84728567  0.35917107  0.60690355     0.25000
C837        C  0.82963474  0.35688715  0.57111316    -0.23000
C838        C  0.79344101  0.33953185  0.56886370     0.19900
F839        F  0.77453385  0.33695354  0.53547863    -0.13000
F840        F  0.74260271  0.30564501  0.59740707    -0.15400
F841        F  0.88158451  0.37607530  0.61118916    -0.15400
F842        F  0.84843757  0.34529522  0.67265395    -0.13000
C843        C  0.66553966  0.36715290  0.84360087     0.25000
C844        C  0.66744210  0.36279241  0.80385317    -0.23100
C845        C  0.64993225  0.39036386  0.78083061     0.19900
C846        C  0.63320038  0.42253851  0.79703713     0.25000
C847        C  0.63317862  0.42760246  0.83654892    -0.23000
C848        C  0.64847416  0.39908763  0.85966021     0.19900
F849        F  0.64927233  0.40325249  0.89784104    -0.13000
F850        F  0.68122136  0.34112279  0.86729357    -0.15400
F851        F  0.61764165  0.44921464  0.77397796    -0.15400
F852        F  0.65029646  0.38716030  0.74257226    -0.13000
C853        C  0.79682761  0.09709093  0.69810100     0.25000
C854        C  0.81789757  0.13079195  0.70305342    -0.23100
C855        C  0.85564762  0.13179754  0.68987328     0.19900
C856        C  0.87139460  0.10018542  0.67142814     0.25000
C857        C  0.84982694  0.06702655  0.66607536    -0.23000
C858        C  0.81253879  0.06583569  0.67981248     0.19900
F859        F  0.79065121  0.03447380  0.67473322    -0.13000
F860        F  0.76043095  0.09429719  0.71012854    -0.15400
F861        F  0.90800973  0.10159458  0.65986340    -0.15400
F862        F  0.87750129  0.16314920  0.69502045    -0.13000
C863        C  0.62990960  0.16045041  0.66599250     0.25000
C864        C  0.63235053  0.19967841  0.67396899    -0.23100
C865        C  0.60295462  0.22375005  0.66164614     0.19900
C866        C  0.57086402  0.20864094  0.64391759     0.25000
C867        C  0.56776130  0.16926267  0.63755283    -0.23000
C868        C  0.59810951  0.14549205  0.64769833     0.19900
F869        F  0.59622547  0.10738229  0.64183196    -0.13000
F870        F  0.65805454  0.13625866  0.67637561    -0.15400
F871        F  0.54257883  0.23257963  0.63335053    -0.15400
F872        F  0.60437348  0.26176269  0.66817104    -0.13000
C873        C  0.65074963  0.13556764  0.90140672     0.25000
C874        C  0.66436704  0.14595524  0.93750600    -0.23100
C875        C  0.69548237  0.17125379  0.93961191     0.19900
C876        C  0.71146224  0.18652153  0.90697324     0.25000
C877        C  0.69713648  0.17708707  0.87109908    -0.23000
C878        C  0.66694706  0.15098794  0.86860536     0.19900
F879        F  0.65196209  0.14150835  0.83448710    -0.13000
F880        F  0.62133347  0.11099987  0.89759335    -0.15400
F881        F  0.74118616  0.21077948  0.91069773    -0.15400
F882        F  0.71061706  0.18203606  0.97329118    -0.13000
C883        C  0.89747898  0.28405431  0.82112757     0.25000
C884        C  0.86249755  0.30255805  0.82351321    -0.23100
C885        C  0.86020153  0.33778597  0.84220034     0.19900
C886        C  0.89289466  0.35496039  0.85700013     0.25000
C887        C  0.92830515  0.33671898  0.85401547    -0.23000
C888        C  0.92982650  0.30052086  0.83659487     0.19900
F889        F  0.96260868  0.28052901  0.83436533    -0.13000
F890        F  0.90037239  0.24962672  0.80394903    -0.15400
F891        F  0.88995353  0.38994535  0.87290807    -0.15400
F892        F  0.82664611  0.35649614  0.84441336    -0.13000
C893        C  0.18205873  0.64552741  0.62846726     0.25000
C894        C  0.21027084  0.67358887  0.62433933    -0.23100
C895        C  0.22239630  0.68319432  0.58778667     0.19900
C896        C  0.20510711  0.66707469  0.55605412     0.25000
C897        C  0.17473470  0.64107555  0.55997854    -0.23000
C898        C  0.16448124  0.62950198  0.59670182     0.19900
F899        F  0.13695131  0.60314594  0.60218284    -0.13000
F900        F  0.17003644  0.63475379  0.66330357    -0.15400
F901        F  0.21780961  0.67802513  0.52151325    -0.15400
F902        F  0.25083799  0.70866204  0.58256251    -0.13000
C903        C  0.40427548  0.81261673  0.70169684     0.25000
C904        C  0.37277650  0.80599679  0.67796360    -0.23100
C905        C  0.37351818  0.82037029  0.64071730     0.19900
C906        C  0.40536033  0.84009410  0.62741050     0.25000
C907        C  0.43699363  0.84565211  0.65104811    -0.23000
C908        C  0.43578521  0.83220135  0.68842513     0.19900
F909        F  0.46506606  0.83851874  0.71262129    -0.13000
F910        F  0.40459436  0.80088290  0.73829964    -0.15400
F911        F  0.40572698  0.85252675  0.59106133    -0.15400
F912        F  0.34379373  0.81485159  0.61690778    -0.13000
C913        C  0.07240042  0.70378611  0.83848375     0.25000
C914        C  0.07328970  0.66541112  0.85042320    -0.23100
C915        C  0.10702213  0.64468409  0.84566447     0.19900
C916        C  0.13854135  0.66148938  0.82845331     0.25000
C917        C  0.13736179  0.69959443  0.81609117    -0.23000
C918        C  0.10418833  0.72073331  0.82186636     0.19900
F919        F  0.10184151  0.75730559  0.80978929    -0.13000
F920        F  0.04057833  0.72505686  0.84250950    -0.15400
F921        F  0.17031363  0.64026962  0.82366155    -0.15400
F922        F  0.10913244  0.60759161  0.85607043    -0.13000
C923        C  0.29622373  0.60211378  0.81309233     0.25000
C924        C  0.32000754  0.63242083  0.80229744    -0.23100
C925        C  0.35855364  0.63142834  0.81303741     0.19900
C926        C  0.37304795  0.60025437  0.83304969     0.25000
C927        C  0.34929504  0.56970723  0.84237024    -0.23000
C928        C  0.31075467  0.57123858  0.83288075     0.19900
F929        F  0.28698962  0.54253809  0.84278738    -0.13000
F930        F  0.25861075  0.60225508  0.80493838    -0.15400
F931        F  0.41054883  0.59905983  0.84162140    -0.15400
F932        F  0.38247763  0.66001089  0.80335631    -0.13000
C933        C  0.28278664  0.83903854  0.88644514     0.25000
C934        C  0.30550011  0.82514607  0.85689679    -0.23100
C935        C  0.34526399  0.82903651  0.85982998     0.19900
C936        C  0.36186430  0.84398547  0.89250066     0.25000
C937        C  0.33920173  0.85546611  0.92295904    -0.23000
C938        C  0.29949671  0.85402979  0.91914424     0.19900
F939        F  0.27675763  0.86684862  0.94730467    -0.13000
F940        F  0.24445286  0.83663079  0.88455935    -0.15400
F941        F  0.40023728  0.84521457  0.89505497    -0.15400
F942        F  0.36840704  0.81758149  0.83139480    -0.13000
C943        C  0.16815460  0.86782166  0.65372087     0.25000
C944        C  0.17795253  0.86540722  0.69238553    -0.23100
C945        C  0.16865557  0.89590764  0.71634394     0.19900
C946        C  0.15069363  0.92821888  0.70194849     0.25000
C947        C  0.14185723  0.93107020  0.66311499    -0.23000
C948        C  0.15028000  0.90028729  0.63927745     0.19900
F949        F  0.14311760  0.90233316  0.60158623    -0.13000
F950        F  0.17634094  0.83896998  0.62959488    -0.15400
F951        F  0.14256412  0.95708707  0.72612493    -0.15400
F952        F  0.17856923  0.89540836  0.75347932    -0.13000
C953        C  0.82051123  0.63834253  0.63092886     0.25000
C954        C  0.79796252  0.67142172  0.62875318    -0.23100
C955        C  0.79081824  0.68741500  0.59286795     0.19900
C956        C  0.80716246  0.67210257  0.56042668     0.25000
C957        C  0.83076861  0.64001193  0.56270292    -0.23000
C958        C  0.83665698  0.62277799  0.59818673     0.19900
F959        F  0.85781486  0.59066834  0.60120627    -0.13000
F960        F  0.82781179  0.62146884  0.66471213    -0.15400
F961        F  0.80088860  0.68981531  0.52686603    -0.15400
F962        F  0.76825239  0.71842384  0.58890515    -0.13000
C963        C  0.69154558  0.59255966  0.79285465     0.25000
C964        C  0.67579224  0.62909528  0.79699024    -0.23100
C965        C  0.64206073  0.63295560  0.81812338     0.19900
C966        C  0.62575168  0.60129611  0.83607412     0.25000
C967        C  0.64261776  0.56520359  0.83299007    -0.23000
C968        C  0.67541764  0.56127181  0.81074970     0.19900
F969        F  0.69297560  0.52711684  0.80712018    -0.13000
F970        F  0.72310173  0.58677540  0.77174118    -0.15400
F971        F  0.59321987  0.60588025  0.85595426    -0.15400
F972        F  0.62502865  0.66734004  0.82195538    -0.13000
C973        C  0.63552382  0.81578464  0.64191949     0.25000
C974        C  0.63742570  0.80644578  0.68069668    -0.23100
C975        C  0.60803093  0.81872084  0.70470405     0.19900
C976        C  0.57715049  0.83860313  0.69026205     0.25000
C977        C  0.57464474  0.84687811  0.65151490    -0.23000
C978        C  0.60434748  0.83594659  0.62747670     0.19900
F979        F  0.60235801  0.84319113  0.58981346    -0.13000
F980        F  0.66318560  0.80454398  0.61778652    -0.15400
F981        F  0.54956490  0.85002315  0.71443811    -0.15400
F982        F  0.60918509  0.81205782  0.74253385    -0.13000
C983        C  0.66650654  0.83426441  0.86204888     0.25000
C984        C  0.70514792  0.82391035  0.86215587    -0.23100
C985        C  0.72733016  0.83281426  0.89397048     0.19900
C986        C  0.71065165  0.84906977  0.92601037     0.25000
C987        C  0.67150177  0.85721212  0.92676955    -0.23000
C988        C  0.64990481  0.85079045  0.89394638     0.19900
F989        F  0.61220857  0.85841313  0.89330634    -0.13000
F990        F  0.64443187  0.82774247  0.83119551    -0.15400
F991        F  0.73282013  0.85618998  0.95663957    -0.15400
F992        F  0.76476322  0.82401446  0.89492418    -0.13000
C993        C  0.83610714  0.89345466  0.72009511     0.25000
C994        C  0.82893626  0.86129435  0.69761031    -0.23100
C995        C  0.83775612  0.86286522  0.65870806     0.19900
C996        C  0.85213208  0.89618457  0.64246761     0.25000
C997        C  0.85780041  0.92882031  0.66467035    -0.23000
C998        C  0.85019923  0.92684105  0.70381653     0.19900
F999        F  0.85586875  0.95750322  0.72648242    -0.13000
F1000       F  0.82757975  0.89340707  0.75751905    -0.15400
F1001       F  0.85854272  0.89700856  0.60463216    -0.15400
F1002       F  0.83178406  0.83226010  0.63605886    -0.13000
C1003       C  0.87604820  0.65137483  0.81917035     0.25000
C1004       C  0.86859634  0.69086943  0.82194548    -0.23100
C1005       C  0.89420364  0.71364340  0.84263611     0.19900
C1006       C  0.92730004  0.69785408  0.85790904     0.25000
C1007       C  0.93506498  0.65893713  0.85374893    -0.23000
C1008       C  0.90885250  0.63568285  0.83504209     0.19900
F1009       F  0.91603619  0.59805436  0.83025107    -0.13000
F1010       F  0.85218318  0.62775407  0.80026497    -0.15400
F1011       F  0.95201772  0.72067274  0.87670554    -0.15400
F1012       F  0.88781384  0.75136465  0.84754160    -0.13000
loop_ 
_geom_bond_atom_site_label_1 
_geom_bond_atom_site_label_2 
_geom_bond_distance 
_geom_bond_site_symmetry_2 
_ccdc_geom_bond_type 
N1            C6   1.352       .  A
N1            C5   1.355       .  A
N1           H33   1.035       .  S
N2            C9   1.352       .  A
N2           C10   1.351   1_545  A
N3            C8   1.354       .  A
N3            C7   1.353       .  A
N3           H34   1.036       .  S
N4           C11   1.352       .  A
N4           C12   1.353   1_545  A
C5           C13   1.388       .  A
C5           C21   1.417       .  A
C6           C22   1.416       .  A
C6           C14   1.388       .  A
C7           C15   1.388       .  A
C7           C24   1.415       .  A
C8           C23   1.416       .  A
C8           C16   1.388       .  A
C9           C21   1.415       .  A
C9           C17   1.386       .  A
C10          C24   1.415       .  A
C10          C18   1.387       .  A
C11          C19   1.387       .  A
C11          C22   1.416       .  A
C12          C20   1.386       .  A
C12          C23   1.416       .  A
C13          C14   1.373       .  A
C13          H25   1.082       .  S
C14          H26   1.082       .  S
C15          C16   1.372       .  A
C15          H27   1.082       .  S
C16          H28   1.082       .  S
C17          C18   1.376   1_545  A
C17          H29   1.082       .  S
C18          H30   1.082       .  S
C19          C20   1.376   1_545  A
C19          H31   1.082       .  S
C20          H32   1.082       .  S
C21         C493   1.481       .  S
C22         C411   1.477       .  S
C23         C459   1.482       .  S
C24         C519   1.476       .  S
N35          C40   1.356       .  A
N35          C39   1.355       .  A
N35          H67   1.036       .  S
N36          C43   1.353       .  A
N36          C44   1.354   1_455  A
N37          C42   1.352       .  A
N37          C41   1.354       .  A
N37          H68   1.037       .  S
N38          C45   1.353       .  A
N38          C46   1.353   1_455  A
C39          C47   1.387       .  A
C39          C55   1.419       .  A
C40          C56   1.421       .  A
C40          C48   1.388       .  A
C41          C49   1.387       .  A
C41          C58   1.415       .  A
C42          C57   1.415       .  A
C42          C50   1.388       .  A
C43          C55   1.418       .  A
C43          C51   1.387       .  A
C44          C58   1.417       .  A
C44          C52   1.386       .  A
C45          C53   1.387       .  A
C45          C56   1.418       .  A
C46          C54   1.386       .  A
C46          C57   1.416       .  A
C47          C48   1.372       .  A
C47          H59   1.082       .  S
C48          H60   1.081       .  S
C49          C50   1.371       .  A
C49          H61   1.081       .  S
C50          H62   1.081       .  S
C51          C52   1.379   1_455  A
C51          H63   1.082       .  S
C52          H64   1.082       .  S
C53          C54   1.378   1_455  A
C53          H65   1.082       .  S
C54          H66   1.082       .  S
C55         C475   1.485       .  S
C56         C463   1.487       .  S
C57         C529   1.480       .  S
C58         C433   1.485       .  S
N69          C74   1.352       .  A
N69          C73   1.354       .  A
N69         H101   1.035       .  S
N70          C77   1.354   1_554  A
N70          C78   1.352       .  A
N71          C76   1.355       .  A
N71          C75   1.352       .  A
N71         H102   1.033       .  S
N72          C79   1.350       .  A
N72          C80   1.351   1_556  A
C73          C81   1.389       .  A
C73          C89   1.415       .  A
C74          C90   1.413       .  A
C74          C82   1.387       .  A
C75          C83   1.389       .  A
C75          C92   1.418       .  A
C76          C91   1.416       .  A
C76          C84   1.387       .  A
C77          C89   1.417       .  A
C77          C85   1.386       .  A
C78          C92   1.417       .  A
C78          C86   1.387       .  A
C79          C87   1.387       .  A
C79          C90   1.412       .  A
C80          C88   1.386       .  A
C80          C91   1.413       .  A
C81          C82   1.371       .  A
C81          H93   1.081       .  S
C82          H94   1.082       .  S
C83          C84   1.371       .  A
C83          H95   1.082       .  S
C84          H96   1.082       .  S
C85          C86   1.379   1_556  A
C85          H97   1.082       .  S
C86          H98   1.082       .  S
C87          C88   1.375   1_556  A
C87          H99   1.082       .  S
C88         H100   1.082       .  S
C89         C525   1.482       .  S
C90         C499   1.471       .  S
C91         C439   1.480       .  S
C92         C427   1.478       .  S
N103        C108   1.355       .  A
N103        C107   1.357   1_554  A
N103        H135   1.032       .  S
N104        C111   1.354       .  A
N104        C112   1.353       .  A
N105        C110   1.354   1_455  A
N105        C109   1.353   1_454  A
N105        H136   1.031       .  S
N106        C113   1.353       .  A
N106        C114   1.354       .  A
C107        C115   1.387   1_455  A
C107        C123   1.420       .  A
C108        C124   1.420       .  A
C108        C116   1.388   1_455  A
C109        C117   1.389       .  A
C109        C126   1.418       .  A
C110        C125   1.417   1_655  A
C110        C118   1.387       .  A
C111        C123   1.416       .  A
C111        C119   1.386       .  A
C112        C126   1.418   1_455  A
C112        C120   1.387       .  A
C113        C121   1.387       .  A
C113        C124   1.418       .  A
C114        C122   1.386       .  A
C114        C125   1.417       .  A
C115        C116   1.373   1_556  A
C115        H127   1.082       .  S
C116        H128   1.082       .  S
C117        C118   1.374   1_556  A
C117        H129   1.082       .  S
C118        H130   1.082       .  S
C119        C120   1.374       .  A
C119        H131   1.082       .  S
C120        H132   1.082       .  S
C121        C122   1.377       .  A
C121        H133   1.082       .  S
C122        H134   1.083       .  S
C123        C513   1.487       .  S
C124        C445   1.481       .  S
C125        C397   1.482       .  S
C126        C481   1.478       .  S
N137        C142   1.355   1_565  A
N137        C141   1.353       .  A
N137        H169   1.036   1_556  S
N138        C145   1.353       .  A
N138        C146   1.354       .  A
N139        C144   1.354   1_564  A
N139        C143   1.355   1_554  A
N139        H170   1.035       .  S
N140        C147   1.354       .  A
N140        C148   1.353       .  A
C141        C149   1.389       .  A
C141        C157   1.418       .  A
C142        C158   1.417       .  A
C142        C150   1.387       .  A
C143        C151   1.388       .  A
C143        C160   1.419       .  A
C144        C159   1.420   1_556  A
C144        C152   1.389       .  A
C145        C157   1.417       .  A
C145        C153   1.386   1_556  A
C146        C160   1.418       .  A
C146        C154   1.387   1_556  A
C147        C155   1.386       .  A
C147        C158   1.418   1_554  A
C148        C156   1.387       .  A
C148        C159   1.419       .  A
C149        C150   1.372   1_565  A
C149        H161   1.082       .  S
C150        H162   1.082       .  S
C151        C152   1.372   1_565  A
C151        H163   1.082       .  S
C152        H164   1.082       .  S
C153        C154   1.376       .  A
C153        H165   1.082       .  S
C154        H166   1.082       .  S
C155        C156   1.377       .  A
C155        H167   1.082       .  S
C156        H168   1.082       .  S
C157        C451   1.479       .  S
C158        C405   1.484   1_556  S
C159        C423   1.482       .  S
C160        C469   1.484       .  S
Zn171       O175   1.983       .  S
Zn171       O176   2.059       .  S
Zn171       O180   2.054       .  S
Zn171       O187   2.057       .  S
Zn172       O175   1.951       .  S
Zn172       O177   2.009       .  S
Zn172       O179   1.997       .  S
Zn172       O183   2.031       .  S
Zn173       O175   1.950       .  S
Zn173       O178   1.982       .  S
Zn173       O181   2.022       .  S
Zn173       O184   1.988       .  S
Zn174       O175   1.951       .  S
Zn174       O182   2.027       .  S
Zn174       O185   2.000       .  S
Zn174       O186   1.990       .  S
O176        C188   1.280       .  A
O177        C189   1.274       .  A
O178        C190   1.270       .  A
O179        C188   1.272       .  A
O180        C190   1.278       .  A
O181        C189   1.272       .  A
O182        C191   1.273       .  A
O183        C192   1.274       .  A
O184        C191   1.270       .  A
O185        C192   1.273       .  A
O186        C193   1.270       .  A
O187        C193   1.279       .  A
C188       C1004   1.495       .  S
C189        C964   1.490       .  S
C190        C984   1.484       .  S
C191        C974   1.485       .  S
C192        C954   1.489       .  S
C193        C994   1.486       .  S
Zn194       O198   1.944       .  S
Zn194       O199   2.011       .  S
Zn194       O203   1.974       .  S
Zn194       O210   1.987       .  S
Zn195       O198   1.939       .  S
Zn195       O200   1.984       .  S
Zn195       O202   1.993       .  S
Zn195       O206   2.002       .  S
Zn196       O198   1.975       .  S
Zn196       O201   2.052       .  S
Zn196       O204   2.057       .  S
Zn196       O207   2.037       .  S
Zn197       O198   1.958       .  S
Zn197       O205   2.008       .  S
Zn197       O208   2.024       .  S
Zn197       O209   2.029       .  S
O199        C211   1.271       .  A
O200        C212   1.270       .  A
O201        C213   1.278       .  A
O202        C211   1.270       .  A
O203        C213   1.268       .  A
O204        C212   1.278       .  A
O205        C214   1.273       .  A
O206        C215   1.272       .  A
O207        C214   1.277       .  A
O208        C215   1.276       .  A
O209        C216   1.274       .  A
O210        C216   1.271       .  A
C211        C924   1.482       .  S
C212        C917   1.483       .  S
C213        C934   1.486       .  S
C214        C944   1.486       .  S
C215        C894   1.483       .  S
C216        C904   1.485       .  S
Zn217       O221   1.975       .  S
Zn217       O222   2.053       .  S
Zn217       O226   2.029       .  S
Zn217       O233   2.049       .  S
Zn218       O221   1.945       .  S
Zn218       O223   2.006       .  S
Zn218       O225   1.977       .  S
Zn218       O229   2.009       .  S
Zn219       O221   1.950       .  S
Zn219       O224   1.997       .  S
Zn219       O227   2.025       .  S
Zn219       O230   2.002       .  S
Zn220       O221   1.954       .  S
Zn220       O228   2.023       .  S
Zn220       O231   2.003       .  S
Zn220       O232   2.001       .  S
O222        C234   1.278       .  A
O223        C235   1.273       .  A
O224        C236   1.272       .  A
O225        C234   1.269       .  A
O226        C236   1.275       .  A
O227        C235   1.273       .  A
O228        C237   1.273       .  A
O229        C238   1.271       .  A
O230        C237   1.273       .  A
O231        C238   1.273       .  A
O232        C239   1.272       .  A
O233        C239   1.277       .  A
C234        C844   1.489       .  S
C235        C877   1.484       .  S
C236        C864   1.483       .  S
C237        C854   1.489       .  S
C238        C884   1.472       .  S
C239        C834   1.479       .  S
Zn240       O244   1.942       .  S
Zn240       O245   1.990       .  S
Zn240       O249   1.983       .  S
Zn240       O256   2.004       .  S
Zn241       O244   1.967       .  S
Zn241       O246   2.029       .  S
Zn241       O248   2.044       .  S
Zn241       O252   2.045       .  S
Zn242       O244   1.957       .  S
Zn242       O247   2.019       .  S
Zn242       O250   1.966       .  S
Zn242       O253   2.001       .  S
Zn243       O244   1.943       .  S
Zn243       O251   2.024       .  S
Zn243       O254   1.996       .  S
Zn243       O255   1.999       .  S
O245        C257   1.269       .  A
O246        C258   1.276       .  A
O247        C259   1.271       .  A
O248        C257   1.276       .  A
O249        C259   1.271       .  A
O250        C258   1.268       .  A
O251        C260   1.273       .  A
O252        C261   1.277       .  A
O253        C260   1.271       .  A
O254        C261   1.271       .  A
O255        C262   1.274       .  A
O256        C262   1.271       .  A
C257        C817   1.482       .  S
C258        C774   1.462       .  S
C259        C807   1.481       .  S
C260        C827   1.480       .  S
C261        C784   1.489       .  S
C262        C797   1.482       .  S
Zn263       O267   1.947       .  S
Zn263       O268   1.983       .  S
Zn263       O272   2.021       .  S
Zn263       O279   2.001       .  S
Zn264       O267   1.977       .  S
Zn264       O269   2.045       .  S
Zn264       O271   2.022       .  S
Zn264       O275   2.050       .  S
Zn265       O267   1.947       .  S
Zn265       O270   2.016       .  S
Zn265       O273   2.002       .  S
Zn265       O276   2.040       .  S
Zn266       O267   1.946       .  S
Zn266       O274   2.012       .  S
Zn266       O277   1.991       .  S
Zn266       O278   2.039       .  S
O268        C280   1.270       .  A
O269        C281   1.277       .  A
O270        C282   1.275       .  A
O271        C280   1.274       .  A
O272        C282   1.273       .  A
O273        C281   1.272       .  A
O274        C283   1.275       .  A
O275        C284   1.278       .  A
O276        C283   1.276       .  A
O277        C284   1.271       .  A
O278        C285   1.275       .  A
O279        C285   1.272       .  A
C280        C724   1.474       .  S
C281        C714   1.489       .  S
C282        C767   1.492       .  S
C283        C754   1.495       .  S
C284        C744   1.486       .  S
C285        C734   1.493       .  S
Zn286       O290   1.940       .  S
Zn286       O291   1.985       .  S
Zn286       O295   2.002       .  S
Zn286       O302   1.973       .  S
Zn287       O290   1.959       .  S
Zn287       O292   2.014       .  S
Zn287       O294   2.044       .  S
Zn287       O298   2.003       .  S
Zn288       O290   1.946       .  S
Zn288       O293   2.009       .  S
Zn288       O296   1.994       .  S
Zn288       O299   1.984       .  S
Zn289       O290   1.973       .  S
Zn289       O297   2.057       .  S
Zn289       O300   2.042       .  S
Zn289       O301   2.043       .  S
O291        C303   1.270       .  A
O292        C304   1.275       .  A
O293        C305   1.273       .  A
O294        C303   1.275       .  A
O295        C305   1.270       .  A
O296        C304   1.270       .  A
O297        C306   1.279       .  A
O298        C307   1.273       .  A
O299        C306   1.269       .  A
O300        C307   1.277       .  A
O301        C308   1.277       .  A
O302        C308   1.269       .  A
C303        C674   1.483       .  S
C304        C704   1.468       .  S
C305        C684   1.474       .  S
C306        C657   1.493       .  S
C307        C664   1.480       .  S
C308        C694   1.479       .  S
Zn309       O313   1.968       .  S
Zn309       O314   2.043       .  S
Zn309       O318   2.031       .  S
Zn309       O325   2.035       .  S
Zn310       O313   1.940       .  S
Zn310       O315   2.017       .  S
Zn310       O317   1.980       .  S
Zn310       O321   1.986       .  S
Zn311       O313   1.946       .  S
Zn311       O316   1.985       .  S
Zn311       O319   2.004       .  S
Zn311       O322   2.013       .  S
Zn312       O313   1.954       .  S
Zn312       O320   2.001       .  S
Zn312       O323   2.034       .  S
Zn312       O324   2.000       .  S
O314        C326   1.277       .  A
O315        C327   1.272       .  A
O316        C328   1.270       .  A
O317        C326   1.269       .  A
O318        C328   1.276       .  A
O319        C327   1.273       .  A
O320        C329   1.273       .  A
O321        C330   1.271       .  A
O322        C329   1.273       .  A
O323        C330   1.274       .  A
O324        C331   1.272       .  A
O325        C331   1.276       .  A
C326        C634   1.477       .  S
C327        C614   1.487       .  S
C328        C604   1.479       .  S
C329        C647   1.476       .  S
C330        C624   1.489       .  S
C331        C594   1.485       .  S
N332        C337   1.354   1_565  A
N332        C336   1.355   1_665  A
N332        H364   1.037       .  S
N333        C340   1.353   1_545  A
N333        C341   1.352   1_545  A
N334        C339   1.355       .  A
N334        C338   1.354   1_655  A
N334        H365   1.037   1_545  S
N335        C342   1.352   1_545  A
N335        C343   1.354   1_545  A
C336        C344   1.388       .  A
C336        C352   1.417       .  A
C337        C353   1.417       .  A
C337        C345   1.388       .  A
C338        C346   1.388       .  A
C338        C355   1.418       .  A
C339        C354   1.417       .  A
C339        C347   1.387       .  A
C340        C352   1.416   1_565  A
C340        C348   1.386       .  A
C341        C355   1.417   1_565  A
C341        C349   1.387       .  A
C342        C350   1.387       .  A
C342        C353   1.416   1_565  A
C343        C351   1.386       .  A
C343        C354   1.417   1_565  A
C344        C345   1.373   1_455  A
C344        H356   1.082       .  S
C345        H357   1.082       .  S
C346        C347   1.373   1_455  A
C346        H358   1.082       .  S
C347        H359   1.082       .  S
C348        C349   1.377       .  A
C348        H360   1.082       .  S
C349        H361   1.082       .  S
C350        C351   1.376       .  A
C350        H362   1.082       .  S
C351        H363   1.082       .  S
C352        C370   1.483       .  S
C353        C417   1.481   1_545  S
C354        C507   1.485       .  S
C355        C487   1.480       .  S
C366        N367   1.350       .  A
C366        N371   1.358       .  A
C366        C584   1.479       .  S
N367        C368   1.353   1_545  A
C368        N369   1.363       .  A
C368        C707   1.489       .  S
N369        C370   1.365   1_565  A
C370        N371   1.362       .  A
Zn372       O376   1.944       .  S
Zn372       O377   1.979       .  S
Zn372       O381   2.001       .  S
Zn372       O388   2.025       .  S
Zn373       O376   1.976       .  S
Zn373       O378   2.048       .  S
Zn373       O380   2.044       .  S
Zn373       O384   2.039       .  S
Zn374       O376   1.947       .  S
Zn374       O379   2.028       .  S
Zn374       O382   1.994       .  S
Zn374       O385   1.996       .  S
Zn375       O376   1.947       .  S
Zn375       O383   2.023       .  S
Zn375       O386   1.989       .  S
Zn375       O387   2.008       .  S
O377        C389   1.270       .  A
O378        C390   1.277       .  A
O379        C391   1.274       .  A
O380        C389   1.277       .  A
O381        C391   1.272       .  A
O382        C390   1.271       .  A
O383        C392   1.274       .  A
O384        C393   1.277       .  A
O385        C392   1.272       .  A
O386        C393   1.270       .  A
O387        C394   1.273       .  A
O388        C394   1.273       .  A
C389        C577   1.481       .  S
C390        C567   1.489       .  S
C391        C544   1.489       .  S
C392        C557   1.483       .  S
C393        C587   1.482       .  S
C394        C534   1.492       .  S
C395        N396   1.362       .  A
C395        N400   1.353   1_655  A
C395        C644   1.491       .  S
N396        C397   1.362   1_655  A
C397        N398   1.361       .  A
N398        C399   1.359       .  A
C399        N400   1.351       .  A
C399        C574   1.477       .  S
C401        N402   1.356   1_556  A
C401        N406   1.363       .  A
C401        C824   1.494       .  S
N402        C403   1.353       .  A
C403        N404   1.359       .  A
C403        C564   1.476       .  S
N404        C405   1.360       .  A
C405        N406   1.363   1_554  A
C407        N408   1.354       .  A
C407        N412   1.359       .  A
C407        C554   1.488       .  S
N408        C409   1.353       .  A
C409        N410   1.360       .  A
C409        C637   1.485       .  S
N410        C411   1.362       .  A
C411        N412   1.360       .  A
C413        N414   1.355       .  A
C413        N418   1.360       .  A
C413        C757   1.487       .  S
N414        C415   1.355   1_565  A
C415        N416   1.359       .  A
C415        C627   1.492       .  S
N416        C417   1.362   1_545  A
C417        N418   1.364       .  A
C419        N420   1.351   1_556  A
C419        N424   1.360       .  A
C419        C874   1.494       .  S
N420        C421   1.352       .  A
C421        N422   1.360       .  A
C421        C617   1.477       .  S
N422        C423   1.364       .  A
C423        N424   1.364   1_554  A
C425        N426   1.357       .  A
C425        N430   1.352       .  A
C425        C727   1.478       .  S
N426        C427   1.359       .  A
C427        N428   1.361       .  A
N428        C429   1.362       .  A
C429        N430   1.354       .  A
C429        C607   1.483       .  S
C431        N432   1.364       .  A
C431        N436   1.357       .  A
C431        C837   1.498       .  S
N432        C433   1.363       .  A
C433        N434   1.359       .  A
N434        C435   1.359       .  A
C435        N436   1.357       .  A
C435        C597   1.482       .  S
C437        N438   1.359       .  A
C437        N442   1.352       .  A
C437        C697   1.483       .  S
N438        C439   1.363       .  A
C439        N440   1.362       .  A
N440        C441   1.360       .  A
C441        N442   1.353       .  A
C441        C547   1.489       .  S
C443        N444   1.363       .  A
C443        N448   1.350       .  A
C443        C764   1.485       .  S
N444        C445   1.367   1_655  A
C445        N446   1.361       .  A
N446        C447   1.358       .  A
C447        N448   1.349   1_455  A
C447        C687   1.486       .  S
C449        N450   1.357       .  A
C449        N454   1.354       .  A
C449        C937   1.478       .  S
N450        C451   1.359       .  A
C451        N452   1.362   1_556  A
N452        C453   1.362       .  A
C453        N454   1.357   1_554  A
C453        C677   1.495       .  S
C455        N456   1.356       .  A
C455        N460   1.362       .  A
C455        C667   1.492       .  S
N456        C457   1.354       .  A
C457        N458   1.359       .  A
C457        C747   1.480       .  S
N458        C459   1.360       .  A
C459        N460   1.362       .  A
C461        N462   1.363       .  A
C461        N466   1.353       .  A
C461        C897   1.493       .  S
N462        C463   1.365       .  A
C463        N464   1.363       .  A
N464        C465   1.360       .  A
C465        N466   1.351       .  A
C465        C654   1.474       .  S
C467        N468   1.361       .  A
C467        N472   1.354       .  A
C467        C987   1.485       .  S
N468        C469   1.363       .  A
C469        N470   1.362   1_556  A
N470        C471   1.361       .  A
C471        N472   1.355   1_554  A
C471        C737   1.486       .  S
C473        N474   1.360       .  A
C473        N478   1.353       .  A
C473        C814   1.489       .  S
N474        C475   1.362       .  A
C475        N476   1.365       .  A
N476        C477   1.363       .  A
C477        N478   1.355       .  A
C477        C537   1.485       .  S
C479        N480   1.360       .  A
C479        N484   1.350       .  A
C479        C887   1.489       .  S
N480        C481   1.364       .  A
C481        N482   1.362   1_655  A
N482        C483   1.358       .  A
C483        N484   1.350   1_455  A
C483        C804   1.487       .  S
C485        N486   1.361       .  A
C485        N490   1.352       .  A
C485        C794   1.487       .  S
N486        C487   1.363       .  A
C487        N488   1.362   1_545  A
N488        C489   1.359       .  A
C489        N490   1.349   1_565  A
C489        C947   1.482       .  S
C491        N492   1.362       .  A
C491        N496   1.356       .  A
C491        C787   1.484       .  S
N492        C493   1.363       .  A
C493        N494   1.358       .  A
N494        C495   1.358       .  A
C495        N496   1.355       .  A
C495        C867   1.478       .  S
C497        N498   1.354       .  A
C497        N502   1.349       .  A
C497        C927   1.465       .  S
N498        C499   1.359       .  A
C499        N500   1.362       .  A
N500        C501   1.360       .  A
C501        N502   1.350       .  A
C501        C777   1.484       .  S
C503        N504   1.352       .  A
C503        N508   1.362       .  A
C503        C997   1.486       .  S
N504        C505   1.353   1_565  A
C505        N506   1.361       .  A
C505        C857   1.478       .  S
N506        C507   1.364       .  A
C507        N508   1.364   1_545  A
C509        N510   1.354   1_655  A
C509        N514   1.357       .  A
C509       C1007   1.473       .  S
N510        C511   1.356       .  A
C511        N512   1.365       .  A
C511        C914   1.491       .  S
N512        C513   1.365       .  A
C513        N514   1.360   1_455  A
C515        N516   1.353       .  A
C515        N520   1.357       .  A
C515        C907   1.477       .  S
N516        C517   1.353       .  A
C517        N518   1.359       .  A
C517        C977   1.474       .  S
N518        C519   1.362       .  A
C519        N520   1.361       .  A
C521        N522   1.354       .  A
C521        N526   1.363       .  A
C521        C967   1.484       .  S
N522        C523   1.351       .  A
C523        N524   1.359       .  A
C523        C847   1.476       .  S
N524        C525   1.361       .  A
C525        N526   1.366       .  A
C527        N528   1.362       .  A
C527        N532   1.357       .  A
C527        C717   1.486       .  S
N528        C529   1.362       .  A
C529        N530   1.359       .  A
N530        C531   1.358       .  A
C531        N532   1.357       .  A
C531        C957   1.482       .  S
C533        C534   1.415       .  A
C533        C538   1.407       .  A
C533        F540   1.358       .  S
C534        C535   1.410       .  A
C535        C536   1.392       .  A
C535        F542   1.358       .  S
C536        C537   1.407       .  A
C536        F541   1.358       .  S
C537        C538   1.407       .  A
C538        F539   1.358       .  S
C543        C544   1.408       .  A
C543        C548   1.392       .  A
C543        F550   1.358       .  S
C544        C545   1.412       .  A
C545        C546   1.404       .  A
C545        F552   1.357       .  S
C546        C547   1.409       .  A
C546        F551   1.358       .  S
C547        C548   1.411       .  A
C548        F549   1.358       .  S
C553        C554   1.410       .  A
C553        C558   1.401       .  A
C553        F560   1.358       .  S
C554        C555   1.412       .  A
C555        C556   1.393       .  A
C555        F562   1.358       .  S
C556        C557   1.407       .  A
C556        F561   1.358       .  S
C557        C558   1.409       .  A
C558        F559   1.358       .  S
C563        C564   1.401       .  A
C563        C568   1.397       .  A
C563        F570   1.358       .  S
C564        C565   1.408       .  A
C565        C566   1.402       .  A
C565        F572   1.358       .  S
C566        C567   1.409       .  A
C566        F571   1.358       .  S
C567        C568   1.414       .  A
C568        F569   1.358       .  S
C573        C574   1.402       .  A
C573        C578   1.396       .  A
C573        F580   1.358       .  S
C574        C575   1.410       .  A
C575        C576   1.399       .  A
C575        F582   1.358       .  S
C576        C577   1.406       .  A
C576        F581   1.358       .  S
C577        C578   1.412       .  A
C578        F579   1.358       .  S
C583        C584   1.403       .  A
C583        C588   1.398       .  A
C583        F590   1.358       .  S
C584        C585   1.411       .  A
C585        C586   1.397       .  A
C585        F592   1.357       .  S
C586        C587   1.405       .  A
C586        F591   1.358       .  S
C587        C588   1.412       .  A
C588        F589   1.358       .  S
C593        C594   1.411       .  A
C593        C598   1.399       .  A
C593        F600   1.358       .  S
C594        C595   1.407       .  A
C595        C596   1.398       .  A
C595        F602   1.358       .  S
C596        C597   1.409       .  A
C596        F601   1.358       .  S
C597        C598   1.406       .  A
C598        F599   1.358       .  S
C603        C604   1.403       .  A
C603        C608   1.396       .  A
C603        F610   1.358       .  S
C604        C605   1.410       .  A
C605        C606   1.398       .  A
C605        F612   1.358       .  S
C606        C607   1.406       .  A
C606        F611   1.358       .  S
C607        C608   1.412       .  A
C608        F609   1.358       .  S
C613        C614   1.409       .  A
C613        C618   1.391       .  A
C613        F620   1.358       .  S
C614        C615   1.414       .  A
C615        C616   1.405       .  A
C615        F622   1.358       .  S
C616        C617   1.405       .  A
C616        F621   1.358       .  S
C617        C618   1.405       .  A
C618        F619   1.359       .  S
C623        C624   1.411       .  A
C623        C628   1.405       .  A
C623        F630   1.358       .  S
C624        C625   1.409       .  A
C625        C626   1.390       .  A
C625        F632   1.359       .  S
C626        C627   1.410       .  A
C626        F631   1.356       .  S
C627        C628   1.411       .  A
C628        F629   1.358       .  S
C633        C634   1.402       .  A
C633        C638   1.397       .  A
C633        F640   1.358       .  S
C634        C635   1.409       .  A
C635        C636   1.400       .  A
C635        F642   1.358       .  S
C636        C637   1.407       .  A
C636        F641   1.358       .  S
C637        C638   1.413       .  A
C638        F639   1.358       .  S
C643        C644   1.416       .  A
C643        C648   1.393       .  A
C643        F650   1.358       .  S
C644        C645   1.411       .  A
C645        C646   1.401       .  A
C645        F652   1.357       .  S
C646        C647   1.407       .  A
C646        F651   1.358       .  S
C647        C648   1.402       .  A
C648        F649   1.359       .  S
C653        C654   1.400       .  A
C653        C658   1.400       .  A
C653        F660   1.358       .  S
C654        C655   1.406       .  A
C655        C656   1.399       .  A
C655        F662   1.358       .  S
C656        C657   1.409       .  A
C656        F661   1.357       .  S
C657        C658   1.418       .  A
C658        F659   1.358       .  S
C663        C664   1.408       .  A
C663        C668   1.401       .  A
C663        F670   1.358       .  S
C664        C665   1.402       .  A
C665        C666   1.398       .  A
C665        F672   1.358       .  S
C666        C667   1.415       .  A
C666        F671   1.358       .  S
C667        C668   1.410       .  A
C668        F669   1.358       .  S
C673        C674   1.405       .  A
C673        C678   1.394       .  A
C673        F680   1.359       .  S
C674        C675   1.407       .  A
C675        C676   1.405       .  A
C675        F682   1.358       .  S
C676        C677   1.413       .  A
C676        F681   1.357       .  S
C677        C678   1.414       .  A
C678        F679   1.358       .  S
C683        C684   1.407       .  A
C683        C688   1.399       .  A
C683        F690   1.358       .  S
C684        C685   1.401       .  A
C685        C686   1.393       .  A
C685        F692   1.358       .  S
C686        C687   1.415       .  A
C686        F691   1.358       .  S
C687        C688   1.409       .  A
C688        F689   1.357       .  S
C693        C694   1.411       .  A
C693        C698   1.399       .  A
C693        F700   1.359       .  S
C694        C695   1.403       .  A
C695        C696   1.396       .  A
C695        F702   1.358       .  S
C696        C697   1.412       .  A
C696        F701   1.358       .  S
C697        C698   1.405       .  A
C698        F699   1.358       .  S
C703        C704   1.407       .  A
C703        C708   1.403       .  A
C703        F710   1.358       .  S
C704        C705   1.396       .  A
C705        C706   1.391       .  A
C705        F712   1.359       .  S
C706        C707   1.416       .  A
C706        F711   1.356       .  S
C707        C708   1.410       .  A
C708        F709   1.357       .  S
C713        C714   1.407       .  A
C713        C718   1.401       .  A
C713        F720   1.358       .  S
C714        C715   1.412       .  A
C715        C716   1.400       .  A
C715        F722   1.358       .  S
C716        C717   1.406       .  A
C716        F721   1.358       .  S
C717        C718   1.411       .  A
C718        F719   1.358       .  S
C723        C724   1.404       .  A
C723        C728   1.396       .  A
C723        F730   1.358       .  S
C724        C725   1.408       .  A
C725        C726   1.395       .  A
C725        F732   1.358       .  S
C726        C727   1.405       .  A
C726        F731   1.358       .  S
C727        C728   1.410       .  A
C728        F729   1.358       .  S
C733        C734   1.411       .  A
C733        C738   1.395       .  A
C733        F740   1.358       .  S
C734        C735   1.413       .  A
C735        C736   1.405       .  A
C735        F742   1.357       .  S
C736        C737   1.408       .  A
C736        F741   1.358       .  S
C737        C738   1.408       .  A
C738        F739   1.359       .  S
C743        C744   1.413       .  A
C743        C748   1.397       .  A
C743        F750   1.358       .  S
C744        C745   1.407       .  A
C745        C746   1.401       .  A
C745        F752   1.358       .  S
C746        C747   1.410       .  A
C746        F751   1.358       .  S
C747        C748   1.403       .  A
C748        F749   1.358       .  S
C753        C754   1.411       .  A
C753        C758   1.394       .  A
C753        F760   1.358       .  S
C754        C755   1.414       .  A
C755        C756   1.407       .  A
C755        F762   1.357       .  S
C756        C757   1.407       .  A
C756        F761   1.357       .  S
C757        C758   1.407       .  A
C758        F759   1.357       .  S
C763        C764   1.410       .  A
C763        C768   1.392       .  A
C763        F770   1.359       .  S
C764        C765   1.406       .  A
C765        C766   1.406       .  A
C765        F772   1.358       .  S
C766        C767   1.415       .  A
C766        F771   1.358       .  S
C767        C768   1.408       .  A
C768        F769   1.358       .  S
C773        C774   1.397       .  A
C773        C778   1.393       .  A
C773        F780   1.359       .  S
C774        C775   1.404       .  A
C775        C776   1.397       .  A
C775        F782   1.358       .  S
C776        C777   1.409       .  A
C776        F781   1.357       .  S
C777        C778   1.417       .  A
C778        F779   1.358       .  S
C783        C784   1.414       .  A
C783        C788   1.401       .  A
C783        F790   1.358       .  S
C784        C785   1.407       .  A
C785        C786   1.399       .  A
C785        F792   1.358       .  S
C786        C787   1.409       .  A
C786        F791   1.358       .  S
C787        C788   1.405       .  A
C788        F789   1.358       .  S
C793        C794   1.409       .  A
C793        C798   1.402       .  A
C793        F800   1.358       .  S
C794        C795   1.413       .  A
C795        C796   1.389       .  A
C795        F802   1.358       .  S
C796        C797   1.404       .  A
C796        F801   1.359       .  S
C797        C798   1.412       .  A
C798        F799   1.358       .  S
C803        C804   1.411       .  A
C803        C808   1.404       .  A
C803        F810   1.358       .  S
C804        C805   1.412       .  A
C805        C806   1.387       .  A
C805        F812   1.357       .  S
C806        C807   1.404       .  A
C806        F811   1.359       .  S
C807        C808   1.410       .  A
C808        F809   1.358       .  S
C813        C814   1.408       .  A
C813        C818   1.400       .  A
C813        F820   1.358       .  S
C814        C815   1.414       .  A
C815        C816   1.399       .  A
C815        F822   1.358       .  S
C816        C817   1.404       .  A
C816        F821   1.358       .  S
C817        C818   1.410       .  A
C818        F819   1.358       .  S
C823        C824   1.416       .  A
C823        C828   1.396       .  A
C823        F830   1.358       .  S
C824        C825   1.412       .  A
C825        C826   1.401       .  A
C825        F832   1.357       .  S
C826        C827   1.406       .  A
C826        F831   1.358       .  S
C827        C828   1.403       .  A
C828        F829   1.359       .  S
C833        C834   1.402       .  A
C833        C838   1.402       .  A
C833        F840   1.358       .  S
C834        C835   1.405       .  A
C835        C836   1.400       .  A
C835        F842   1.358       .  S
C836        C837   1.411       .  A
C836        F841   1.357       .  S
C837        C838   1.418       .  A
C838        F839   1.358       .  S
C843        C844   1.416       .  A
C843        C848   1.396       .  A
C843        F850   1.358       .  S
C844        C845   1.408       .  A
C845        C846   1.400       .  A
C845        F852   1.358       .  S
C846        C847   1.408       .  A
C846        F851   1.358       .  S
C847        C848   1.401       .  A
C848        F849   1.358       .  S
C853        C854   1.410       .  A
C853        C858   1.392       .  A
C853        F860   1.358       .  S
C854        C855   1.414       .  A
C855        C856   1.405       .  A
C855        F862   1.358       .  S
C856        C857   1.405       .  A
C856        F861   1.358       .  S
C857        C858   1.405       .  A
C858        F859   1.358       .  S
C863        C864   1.411       .  A
C863        C868   1.397       .  A
C863        F870   1.358       .  S
C864        C865   1.408       .  A
C865        C866   1.398       .  A
C865        F872   1.358       .  S
C866        C867   1.408       .  A
C866        F871   1.358       .  S
C867        C868   1.405       .  A
C868        F869   1.358       .  S
C873        C874   1.411       .  A
C873        C878   1.403       .  A
C873        F880   1.357       .  S
C874        C875   1.415       .  A
C875        C876   1.394       .  A
C875        F882   1.358       .  S
C876        C877   1.404       .  A
C876        F881   1.359       .  S
C877        C878   1.409       .  A
C878        F879   1.358       .  S
C883        C884   1.399       .  A
C883        C888   1.391       .  A
C883        F890   1.359       .  S
C884        C885   1.407       .  A
C885        C886   1.403       .  A
C885        F892   1.358       .  S
C886        C887   1.410       .  A
C886        F891   1.357       .  S
C887        C888   1.416       .  A
C888        F889   1.357       .  S
C893        C894   1.410       .  A
C893        C898   1.400       .  A
C893        F900   1.358       .  S
C894        C895   1.404       .  A
C895        C896   1.396       .  A
C895        F902   1.359       .  S
C896        C897   1.416       .  A
C896        F901   1.358       .  S
C897        C898   1.409       .  A
C898        F899   1.357       .  S
C903        C904   1.411       .  A
C903        C908   1.391       .  A
C903        F910   1.358       .  S
C904        C905   1.411       .  A
C905        C906   1.403       .  A
C905        F912   1.358       .  S
C906        C907   1.407       .  A
C906        F911   1.358       .  S
C907        C908   1.404       .  A
C908        F909   1.358       .  S
C913        C914   1.415       .  A
C913        C918   1.401       .  A
C913        F920   1.358       .  S
C914        C915   1.407       .  A
C915        C916   1.401       .  A
C915        F922   1.358       .  S
C916        C917   1.410       .  A
C916        F921   1.358       .  S
C917        C918   1.403       .  A
C918        F919   1.358       .  S
C923        C924   1.410       .  A
C923        C928   1.389       .  A
C923        F930   1.358       .  S
C924        C925   1.412       .  A
C925        C926   1.401       .  A
C925        F932   1.357       .  S
C926        C927   1.403       .  A
C926        F931   1.358       .  S
C927        C928   1.402       .  A
C928        F929   1.359       .  S
C933        C934   1.406       .  A
C933        C938   1.400       .  A
C933        F940   1.357       .  S
C934        C935   1.414       .  A
C935        C936   1.397       .  A
C935        F942   1.358       .  S
C936        C937   1.403       .  A
C936        F941   1.358       .  S
C937        C938   1.409       .  A
C938        F939   1.358       .  S
C943        C944   1.412       .  A
C943        C948   1.401       .  A
C943        F950   1.358       .  S
C944        C945   1.407       .  A
C945        C946   1.397       .  A
C945        F952   1.358       .  S
C946        C947   1.411       .  A
C946        F951   1.359       .  S
C947        C948   1.405       .  A
C948        F949   1.358       .  S
C953        C954   1.412       .  A
C953        C958   1.403       .  A
C953        F960   1.358       .  S
C954        C955   1.410       .  A
C955        C956   1.394       .  A
C955        F962   1.358       .  S
C956        C957   1.405       .  A
C956        F961   1.358       .  S
C957        C958   1.408       .  A
C958        F959   1.358       .  S
C963        C964   1.408       .  A
C963        C968   1.392       .  A
C963        F970   1.358       .  S
C964        C965   1.414       .  A
C965        C966   1.406       .  A
C965        F972   1.358       .  S
C966        C967   1.407       .  A
C966        F971   1.358       .  S
C967        C968   1.408       .  A
C968        F969   1.358       .  S
C973        C974   1.411       .  A
C973        C978   1.404       .  A
C973        F980   1.358       .  S
C974        C975   1.410       .  A
C975        C976   1.391       .  A
C975        F982   1.359       .  S
C976        C977   1.403       .  A
C976        F981   1.358       .  S
C977        C978   1.405       .  A
C978        F979   1.358       .  S
C983        C984   1.412       .  A
C983        C988   1.399       .  A
C983        F990   1.359       .  S
C984        C985   1.404       .  A
C985        C986   1.400       .  A
C985        F992   1.358       .  S
C986        C987   1.412       .  A
C986        F991   1.358       .  S
C987        C988   1.405       .  A
C988        F989   1.358       .  S
C993        C994   1.405       .  A
C993        C998   1.400       .  A
C993       F1000   1.358       .  S
C994        C995   1.412       .  A
C995        C996   1.401       .  A
C995       F1002   1.358       .  S
C996        C997   1.405       .  A
C996       F1001   1.358       .  S
C997        C998   1.412       .  A
C998        F999   1.358       .  S
C1003      C1004   1.417       .  A
C1003      C1008   1.399       .  A
C1003      F1010   1.358       .  S
C1004      C1005   1.411       .  A
C1005      C1006   1.401       .  A
C1005      F1012   1.357       .  S
C1006      C1007   1.404       .  A
C1006      F1011   1.358       .  S
C1007      C1008   1.400       .  A
C1008      F1009   1.358       .  S
