geometry optimzed in LAMMPS
_audit_creation_date              2020-11-30 
_audit_creation_method            'lammps2cif' 
_symmetry_space_group_name_H-M    'P1' 
_symmetry_Int_Tables_number       1 
_symmetry_cell_setting            triclinic 
loop_ 
_symmetry_equiv_pos_as_xyz 
  x,y,z 
_cell_length_a                    42.31216321 
_cell_length_b                    42.94045219579715 
_cell_length_c                    43.0832888338072 
_cell_angle_alpha                 90.08577123608103 
_cell_angle_beta                  86.09760663787829 
_cell_angle_gamma                 90.69065472699891 
loop_ 
_atom_site_label 
_atom_site_type_symbol 
_atom_site_fract_x 
_atom_site_fract_y 
_atom_site_fract_z 
_atom_site_charge 
C1          C  0.49153091  0.10679774  0.27217009     0.85600
C2          C  0.46084384  0.12534494  0.27146384    -0.54700
C3          C  0.45554412  0.13995386  0.24400116     0.08500
C4          C  0.98409768  0.13346843  0.21861812     0.19400
C5          C  0.48888337  0.08362179  0.24426451    -0.55400
C6          C  0.48562400  0.09740500  0.21540324     0.08600
C7          C  0.01694345  0.12791839  0.26226224    -0.54900
C8          C  0.01441597  0.14279981  0.23536751     0.09200
H9          H  0.44451997  0.12691248  0.29183443     0.15700
H10         H  0.98302386  0.14563539  0.19616906    -0.00600
H11         H  0.48859014  0.05862373  0.24757970     0.14000
H12         H  0.03725699  0.13169493  0.27621318     0.13800
O13         O  0.03381589  0.05372472  0.41066628    -0.81100
O14         O  0.38082657  0.47375822  0.46545692    -0.82600
O15         O  0.45430958  0.48439038  0.38161801    -0.79600
O16         O  0.42434681  0.06662490  0.43511830    -0.78000
O17         O  0.42930646  0.08341969  0.48494442    -0.79800
O18         O  0.48332309  0.44162213  0.39206243    -0.80700
O19         O  0.39624400  0.50638531  0.42517010    -0.82100
O20         O  0.48411250  0.04999625  0.39461718    -0.82400
Eu21       Eu  0.45215492  0.01678449  0.42977565     2.39200
O22         O  0.42915301  0.01484372  0.48107399    -0.89900
O23         O  0.50301082  0.49657722  0.42762360    -0.93500
C24         C  0.51280924  0.06017924  0.39179386     1.01200
C25         C  0.37540892  0.49003415  0.44102738     1.01000
C26         C  0.46738877  0.45817003  0.37386594     1.01000
C27         C  0.41931682  0.08619737  0.45756938     0.98800
H28         H  0.43360836  0.45248950  0.43376172     0.28600
O29         O  0.44670166  0.46468466  0.44683454    -1.02200
H30         H  0.48385492  0.06790240  0.45491344     0.28600
O31         O  0.48265406  0.04673807  0.46262234    -1.04800
O32         O  0.42912544  0.43594660  0.05144546    -0.82000
O33         O  0.07874664  0.02277576  0.49511331    -0.81600
O34         O  0.46356582  0.39590131  0.45001552    -0.80000
O35         O  0.40034207  0.03717310  0.03781130    -0.83300
O36         O  0.49405650  0.09401850  0.01162800    -0.81200
O37         O  0.05466820  0.44698067  0.42307196    -0.79800
O38         O  0.03252605  0.42239021  0.02227600    -0.81400
O39         O  0.00075094  0.01059526  0.07955727    -0.83300
O40         O  0.01819551  0.40497871  0.47618428    -0.80000
O41         O  0.46915275  0.05108356  0.06871156    -0.82700
O42         O  0.42021723  0.40911925  0.48090334    -0.78400
O43         O  0.07378069  0.49644161  0.43077364    -0.78500
O44         O  0.03725880  0.08044258  0.47707826    -0.78100
O45         O  0.38841613  0.48623972  0.03484749    -0.81600
O46         O  0.47910970  0.44397365  0.06745455    -0.81000
O47         O  0.06310477  0.48709477  0.03127898    -0.79400
Eu48       Eu  0.42629247  0.46329324  0.99971551     2.39800
Eu49       Eu  0.03338895  0.02608911  0.46102294     2.39600
Eu50       Eu  0.49790689  0.44494068  0.44569993     2.38400
Eu51       Eu  0.45738005  0.04675494  0.01421431     2.39900
Eu52       Eu  0.00763994  0.47554946  0.02981968     2.39800
O53         O  0.01082797  0.02761495  0.01194860    -0.93800
O54         O  0.47743291  0.44460130  0.49789410    -0.92700
C55         C  0.45100564  0.43285384  0.07100491     1.01400
C56         C  0.08546423  0.00540412  0.01753175     1.00100
C57         C  0.43664264  0.38884782  0.46498078     0.99500
C58         C  0.38091191  0.01331198  0.04246178     1.01500
C59         C  0.02126472  0.09971587  0.49470858     1.00400
C60         C  0.07687169  0.46827124  0.42088529     0.99300
C61         C  0.03448936  0.40288109  0.99907583     0.99300
C62         C  0.48526310  0.03649908  0.08811634     1.02000
H63         H  0.05020275  0.46595532  0.47913011     0.29300
O64         O  0.02947131  0.47501311  0.47872560    -1.05900
H65         H  0.44656373  0.49497924  0.05290434     0.31400
O66         O  0.45606351  0.49524167  0.03191450    -1.08500
C67         C  0.20754784  0.04011439  0.13429520     0.85600
C68         C  0.18882224  0.03656301  0.10570802    -0.54700
C69         C  0.19599773  0.01142569  0.08807171     0.08500
C70         C  0.22495086  0.49098909  0.09833134     0.19400
C71         C  0.20468508  0.00846742  0.15132106    -0.55400
C72         C  0.21559151  0.48185484  0.13229845     0.08600
C73         C  0.24171993  0.04189129  0.11962415    -0.54900
C74         C  0.25149233  0.01678074  0.10218372     0.09200
H75         H  0.17102064  0.05251008  0.09884351     0.13700
H76         H  0.23215265  0.47053227  0.08439109    -0.00600
H77         H  0.19646014  0.00639307  0.17566243     0.14000
H78         H  0.25635048  0.06263669  0.12133626     0.13800
O79         O  0.15347640  0.19346890  0.26691535    -0.81100
O80         O  0.22131228  0.28825152  0.13049287    -0.82600
O81         O  0.13461077  0.27059849  0.19867238    -0.79600
O82         O  0.18640272  0.18375816  0.17132866    -0.78000
O83         O  0.23919575  0.17743073  0.16368247    -0.79800
O84         O  0.14197870  0.30803790  0.23522816    -0.80700
O85         O  0.18218098  0.25247309  0.14166732    -0.82100
O86         O  0.14050942  0.20560622  0.21767964    -0.82400
Eu87       Eu  0.18191129  0.23621199  0.19485457     2.39200
O88         O  0.23473510  0.23633148  0.17611050    -0.89900
O89         O  0.17586550  0.25237759  0.24688321    -0.93500
C90         C  0.13486898  0.19265651  0.24403466     1.01200
C91         C  0.19641936  0.27256282  0.12354435     1.01000
C92         C  0.12560469  0.29489677  0.21462868     1.01000
C93         C  0.21085795  0.16724250  0.16311182     0.98800
H94         H  0.18817609  0.30059867  0.18515963     0.28600
O95         O  0.20066815  0.28729635  0.19756199    -1.02200
H96         H  0.20244229  0.18133964  0.22442664     0.28600
O97         O  0.21116130  0.20221544  0.22473304    -1.04800
O98         O  0.30482923  0.31467760  0.18051454    -0.82000
O99         O  0.23485393  0.22627531  0.32472761    -0.81600
O100        O  0.20470362  0.35052586  0.21522907    -0.80000
O101        O  0.28988557  0.20822610  0.15098700    -0.83300
O102        O  0.25407573  0.15324023  0.23660860    -0.81200
O103        O  0.17285914  0.29515696  0.30623288    -0.79800
O104        O  0.27230770  0.32688719  0.28132447    -0.81400
O105        O  0.32880460  0.23678564  0.25589657    -0.83300
O106        O  0.21927351  0.33482576  0.28765035    -0.80000
O107        O  0.31863650  0.19640901  0.22292740    -0.82700
O108        O  0.23778425  0.34059752  0.17221412    -0.78400
O109        O  0.16448281  0.24349532  0.30868172    -0.78500
O110        O  0.22356713  0.16635856  0.28026811    -0.78100
O111        O  0.28010368  0.25795933  0.13533137    -0.81600
O112        O  0.31972713  0.30477461  0.22964970    -0.81000
O113        O  0.27871494  0.25750814  0.31455616    -0.79400
Eu114      Eu  0.25365358  0.28733333  0.17711223     2.39800
Eu115      Eu  0.20615491  0.21949365  0.27612779     2.39600
Eu116      Eu  0.19613446  0.30304615  0.25010967     2.38400
Eu117      Eu  0.26482534  0.20298840  0.20544502     2.39900
Eu118      Eu  0.28105830  0.27233849  0.25919160     2.39800
O119        O  0.25994800  0.22131059  0.25702766    -0.93800
O120        O  0.24955906  0.30430261  0.22945725    -0.92700
C121        C  0.32387784  0.31734865  0.20255847     1.01400
C122        C  0.25959063  0.24139734  0.33316611     1.00100
C123        C  0.21965755  0.35853222  0.18898444     0.99500
C124        C  0.29028509  0.23027822  0.13028575     1.01500
C125        C  0.23895322  0.14637043  0.26315192     1.00400
C126        C  0.16459445  0.27002068  0.32185720     0.99300
C127        C  0.24775794  0.34393970  0.28934479     0.99300
C128        C  0.33664032  0.21107291  0.24127404     1.02000
H129        H  0.22663513  0.27739945  0.29889085     0.29300
O130        O  0.22757613  0.27001899  0.27779681    -1.05900
H131        H  0.30690211  0.25462130  0.19824671     0.31400
O132        O  0.28489737  0.25454528  0.20692324    -1.08500
C133        C  0.09037556  0.22157535  0.48809158     0.85600
C134        C  0.11968759  0.22396318  0.01005756    -0.54700
C135        C  0.13643697  0.25137352  0.00923873     0.08500
C136        C  0.12439241  0.27357843  0.48533865     0.19400
C137        C  0.07177934  0.25142401  0.49777539    -0.55400
C138        C  0.08938294  0.27853192  0.49575079     0.08600
C139        C  0.10588390  0.22918855  0.45580732    -0.54900
C140        C  0.12408581  0.25600518  0.45375377     0.09200
H141        H  0.12234021  0.20742955  0.02868266     0.13700
H142        H  0.13857509  0.29542824  0.48441297    -0.00600
H143        H  0.04702606  0.25152062  0.50601590     0.14000
H144        H  0.10285198  0.21410826  0.43593699     0.13800
C145        C  0.47712852  0.39848361  0.25167758     0.85600
C146        C  0.50615479  0.37858281  0.24688745    -0.54700
C147        C  0.50721028  0.36120518  0.22065389     0.08500
C148        C  0.47800653  0.36552253  0.20095341     0.19400
C149        C  0.47608438  0.41790425  0.22101927    -0.55400
C150        C  0.47632469  0.40045482  0.19408449     0.08600
C151        C  0.44909028  0.37545516  0.24965194    -0.54900
C152        C  0.44756680  0.36018716  0.22195774     0.09200
H153        H  0.02553506  0.37624908  0.26242166     0.13700
H154        H  0.47939080  0.35074948  0.18035244    -0.00600
H155        H  0.47329668  0.44263406  0.22096531     0.14000
H156        H  0.42963321  0.37460677  0.26741858     0.13800
C157        C  0.36539333  0.20839569  0.46149256     0.85600
C158        C  0.33791446  0.21247601  0.44145436    -0.54700
C159        C  0.32047467  0.23840686  0.44645636     0.08500
C160        C  0.33341378  0.25944196  0.47271684     0.19400
C161        C  0.38576249  0.23841368  0.45632692    -0.55400
C162        C  0.36934802  0.26602414  0.46207536     0.08600
C163        C  0.35325112  0.21304711  0.99486355    -0.54900
C164        C  0.33574139  0.23770362  0.50179613     0.09200
H165        H  0.33340063  0.19582101  0.42318238     0.13700
H166        H  0.31867191  0.28024291  0.47723507    -0.00600
H167        H  0.41120373  0.23773255  0.45132530     0.14000
H168        H  0.35947104  0.19703420  0.01297244     0.13800
C169        C  0.23642786  0.02831619  0.33479931     0.85600
C170        C  0.25839862  0.02949071  0.36143700    -0.54700
C171        C  0.25890024  0.50369946  0.37939302     0.08500
C172        C  0.23521599  0.47791661  0.36966259     0.19400
C173        C  0.24641999  0.49843201  0.31769704    -0.55400
C174        C  0.24528299  0.47162623  0.33536512     0.08600
C175        C  0.20334479  0.01859788  0.34982763    -0.54900
C176        C  0.20214999  0.49280602  0.36842176     0.09200
H177        H  0.27493207  0.04868143  0.36427202     0.13700
H178        H  0.23413073  0.45693417  0.38441554    -0.00600
H179        H  0.25370334  0.49847667  0.29317446     0.14000
H180        H  0.18166207  0.02989185  0.34455671     0.13800
C181        C  0.14605890  0.29576710  0.37463660    -0.02800
C182        C  0.15674954  0.26939767  0.35699060     0.06900
C183        C  0.16207580  0.24140655  0.37404638    -0.02900
C184        C  0.15766324  0.24062446  0.40664752    -0.02900
C185        C  0.14189826  0.26462173  0.42311390     0.07000
C186        C  0.13882539  0.29337041  0.40747048    -0.03100
Br187      Br  0.12813290  0.33032738  0.43090866    -0.01600
Br188      Br  0.13798580  0.33448105  0.35409995    -0.01700
Br189      Br  0.17529000  0.20705695  0.42971860    -0.01700
Br190      Br  0.17227089  0.20138734  0.35508035    -0.01600
C191        C  0.19808513  0.28117556  0.06435747    -0.02800
C192        C  0.18128095  0.27643972  0.09347298     0.06900
C193        C  0.14853076  0.26989649  0.09397261    -0.02900
C194        C  0.13475192  0.25933348  0.06732897    -0.02900
C195        C  0.15206151  0.26137053  0.03793146     0.07000
C196        C  0.18293060  0.27482556  0.03651531    -0.03100
Br197      Br  0.20421451  0.28478116  0.99673835    -0.01600
Br198      Br  0.24096668  0.29703400  0.06243926    -0.01700
Br199      Br  0.09026572  0.24707199  0.07224924    -0.01700
Br200      Br  0.12130470  0.27937434  0.13058841    -0.01600
C201        C  0.26608033  0.21506797  0.38515542    -0.02800
C202        C  0.26628490  0.24202258  0.36675260     0.06900
C203        C  0.27416248  0.27055079  0.38063758    -0.02900
C204        C  0.29141680  0.27115600  0.40759965    -0.02900
C205        C  0.29407382  0.24350109  0.42498461     0.07000
C206        C  0.27650742  0.21698704  0.41549525    -0.03100
Br207      Br  0.26726771  0.18269380  0.44337796    -0.01600
Br208      Br  0.25406909  0.17514475  0.36871385    -0.01700
Br209      Br  0.31342372  0.30897387  0.41734470    -0.01700
Br210      Br  0.25567250  0.30783850  0.36592481    -0.01600
C211        C  0.33446330  0.23026630  0.08938720    -0.02800
C212        C  0.30230894  0.22503665  0.09761319     0.06900
C213        C  0.28066263  0.22492202  0.07409451    -0.02900
C214        C  0.29086766  0.23217393  0.04296195    -0.02900
C215        C  0.32273676  0.24049575  0.03500056     0.07000
C216        C  0.34453680  0.23944158  0.05881451    -0.03100
Br217      Br  0.38879504  0.24953322  0.04963671    -0.01600
Br218      Br  0.36454624  0.22174874  0.11981030    -0.01700
Br219      Br  0.26160738  0.22867028  0.01090927    -0.01700
Br220      Br  0.23734255  0.21244157  0.08461499    -0.01600
C221        C  0.26760734  0.41584172  0.33589433    -0.02800
C222        C  0.24957196  0.43946604  0.32201339     0.06900
C223        C  0.23249836  0.43080279  0.29623799    -0.02900
C224        C  0.22847757  0.39924295  0.28958651    -0.02900
C225        C  0.25045080  0.37699567  0.29953843     0.07000
C226        C  0.27204778  0.38680093  0.32099013    -0.03100
Br227      Br  0.30640209  0.36062554  0.33182550    -0.01600
Br228      Br  0.28263619  0.41845375  0.37701071    -0.01700
Br229      Br  0.18993709  0.38875054  0.26980015    -0.01700
Br230      Br  0.21247602  0.46017745  0.26971765    -0.01600
C231        C  0.26455926  0.09408734  0.27497123    -0.02800
C232        C  0.23804500  0.11385350  0.27649072     0.06900
C233        C  0.21161155  0.10508317  0.29665311    -0.02900
C234        C  0.21390804  0.08137265  0.31865845    -0.02900
C235        C  0.23812714  0.05889556  0.31500105     0.07000
C236        C  0.26440453  0.06652863  0.29341491    -0.03100
Br237      Br  0.30264262  0.04240080  0.29104829    -0.01600
Br238      Br  0.30162131  0.10482411  0.24835838    -0.01700
Br239      Br  0.19106550  0.08871673  0.35844756    -0.01700
Br240      Br  0.17088193  0.12467187  0.29460443    -0.01600
C241        C  0.35838287  0.36001088  0.21881501    -0.02800
C242        C  0.35305989  0.33597909  0.19778746     0.06900
C243        C  0.37853844  0.32482703  0.17864809    -0.02900
C244        C  0.40984006  0.33139782  0.18637154    -0.02900
C245        C  0.41543439  0.35445058  0.20935315     0.07000
C246        C  0.38880670  0.37208171  0.22105551    -0.03100
Br247      Br  0.39140142  0.41360328  0.23847621    -0.01600
Br248      Br  0.32514449  0.37391796  0.24803765    -0.01700
Br249      Br  0.44249648  0.30564773  0.16697899    -0.01700
Br250      Br  0.37019800  0.29940219  0.14324728    -0.01600
C251        C  0.09421171  0.34299839  0.20626993    -0.02800
C252        C  0.09503660  0.31016449  0.20877766     0.06900
C253        C  0.06625336  0.29319035  0.20843758    -0.02900
C254        C  0.03706291  0.30887129  0.21204629    -0.02900
C255        C  0.03643570  0.34163965  0.21091572     0.07000
C256        C  0.06516998  0.35845939  0.20610512    -0.03100
Br257      Br  0.06484408  0.40325062  0.20101709    -0.01600
Br258      Br  0.13274803  0.36750945  0.20269080    -0.01700
Br259      Br  0.99872307  0.28569091  0.22298908    -0.01700
Br260      Br  0.06633628  0.24898261  0.20206799    -0.01600
C261        C  0.23463660  0.44458156  0.17222174    -0.02800
C262        C  0.21779863  0.44932147  0.14537381     0.06900
C263        C  0.20367879  0.42277005  0.13176199    -0.02900
C264        C  0.20158429  0.39406803  0.14790256    -0.02900
C265        C  0.21629478  0.39034571  0.17605647     0.07000
C266        C  0.23431302  0.41526667  0.18692381    -0.03100
Br267      Br  0.26233205  0.40803065  0.21911817    -0.01600
Br268      Br  0.26298243  0.47638450  0.18597497    -0.01700
Br269      Br  0.17971639  0.35898314  0.13049588    -0.01700
Br270      Br  0.19057030  0.42282271  0.08968399    -0.01600
C271        C  0.23007837  0.11293969  0.16755163    -0.02800
C272        C  0.20714941  0.13356059  0.15681680     0.06900
C273        C  0.17861479  0.12091033  0.14671213    -0.02900
C274        C  0.17376114  0.08840258  0.14707267    -0.02900
C275        C  0.19864772  0.06859185  0.15440158     0.07000
C276        C  0.22257283  0.08153363  0.17126151    -0.03100
Br277      Br  0.24579552  0.05621870  0.19817487    -0.01600
Br278      Br  0.27425490  0.12399596  0.17082789    -0.01700
Br279      Br  0.13155831  0.07142736  0.14410104    -0.01700
Br280      Br  0.14832985  0.14691666  0.12797446    -0.01600
C281        C  0.46669041  0.39412970  0.10756566    -0.02800
C282        C  0.44537467  0.41782704  0.10153503     0.06900
C283        C  0.43415455  0.43713393  0.12618638    -0.02900
C284        C  0.44507714  0.43366946  0.15633844    -0.02900
C285        C  0.46838085  0.41087492  0.16194566     0.07000
C286        C  0.48070481  0.39316545  0.13615725    -0.03100
Br287      Br  0.52107100  0.37261354  0.13726201    -0.01600
Br288      Br  0.48062550  0.36640211  0.07417859    -0.01700
Br289      Br  0.43026602  0.46387702  0.18692735    -0.01700
Br290      Br  0.40695213  0.47137631  0.11697487    -0.01600
C291        C  0.45954477  0.41329656  0.33877021    -0.02800
C292        C  0.46501778  0.44540738  0.34198162     0.06900
C293        C  0.47561590  0.46275446  0.31552434    -0.02900
C294        C  0.48293999  0.44770842  0.28678299    -0.02900
C295        C  0.47616521  0.41541928  0.28331541     0.07000
C296        C  0.46804369  0.39802146  0.31079330    -0.03100
Br297      Br  0.97226607  0.35079905  0.31269256    -0.01600
Br298      Br  0.93676626  0.38904198  0.37205178    -0.01700
Br299      Br  0.51192812  0.46939961  0.25751756    -0.01700
Br300      Br  0.48047742  0.50719174  0.31844641    -0.01600
C301        C  0.16570852  0.46974997  0.41300695    -0.02800
C302        C  0.17091724  0.47814672  0.38115341     0.06900
C303        C  0.14493377  0.97356046  0.36069055    -0.02900
C304        C  0.11485082  0.46418666  0.37447950    -0.02900
C305        C  0.10899641  0.46126833  0.40663344     0.07000
C306        C  0.13487809  0.46149856  0.42550115    -0.03100
Br307      Br  0.12733407  0.44978655  0.46857763    -0.01600
Br308      Br  0.19946950  0.47144325  0.44072436    -0.01700
Br309      Br  0.07973823  0.95726359  0.34739328    -0.01700
Br310      Br  0.14973424  0.98031406  0.31658902    -0.01600
C311        C  0.31495080  0.48432868  0.38173751    -0.02800
C312        C  0.28757949  0.49774588  0.39689697     0.06900
C313        C  0.28991673  0.50999078  0.42705693    -0.02900
C314        C  0.31878192  0.50806784  0.44158864    -0.02900
C315        C  0.34367122  0.48957897  0.42851039     0.07000
C316        C  0.34112628  0.47715558  0.39860932    -0.03100
Br317      Br  0.37495830  0.45225880  0.37958123    -0.01600
Br318      Br  0.31998678  0.47960559  0.33720384    -0.01700
Br319      Br  0.32627349  0.53594898  0.47517651    -0.01700
Br320      Br  0.25506035  0.03148988  0.44534836    -0.01600
C321        C  0.11925985  0.98413758  0.05848121    -0.02800
C322        C  0.11727268  0.00237514  0.03104890     0.06900
C323        C  0.14420633  0.51584785  0.01963922    -0.02900
C324        C  0.17233024  0.01914300  0.03680359    -0.02900
C325        C  0.17259308  0.00297341  0.06539356     0.07000
C326        C  0.14473519  0.98766777  0.07699543    -0.03100
Br327      Br  0.13686046  0.97867296  0.12111402    -0.01600
Br328      Br  0.08885391  0.95223876  0.07209601    -0.01700
Br329      Br  0.20644072  0.54321305  0.02350605    -0.01700
Br330      Br  0.14740014  0.53793126  0.47920956    -0.01600
C331        C  0.34132830  0.03212210  0.08511859    -0.02800
C332        C  0.34775356  0.01600963  0.05705195     0.06900
C333        C  0.32262453  0.99774396  0.04542685    -0.02900
C334        C  0.29121289  0.00102125  0.05770204    -0.02900
C335        C  0.28487593  0.01545364  0.08692298     0.07000
C336        C  0.31119708  0.02915743  0.10137128    -0.03100
Br337      Br  0.30895938  0.03959315  0.14502094    -0.01600
Br338      Br  0.37485322  0.05478853  0.10366918    -0.01700
Br339      Br  0.25965952  0.48550140  0.03045331    -0.01700
Br340      Br  0.32881682  0.46583888  0.51372212    -0.01600
C341        C  0.37694964  0.12198266  0.47594598    -0.02800
C342        C  0.40044754  0.11404772  0.45290593     0.06900
C343        C  0.40726809  0.13466688  0.42783834    -0.02900
C344        C  0.39800243  0.16613515  0.43079774    -0.02900
C345        C  0.37758279  0.17517170  0.45660894     0.07000
C346        C  0.36217466  0.15044023  0.47426381    -0.03100
Br347      Br  0.31895021  0.15191490  0.49281911    -0.01600
Br348      Br  0.36417501  0.09469963  0.51033635    -0.01700
Br349      Br  0.41082967  0.19498872  0.39807000    -0.01700
Br350      Br  0.42476021  0.11904506  0.38862914    -0.01600
C351        C  0.39936189  0.34694431  0.48907866    -0.02800
C352        C  0.42234340  0.35585316  0.46495421     0.06900
C353        C  0.42969005  0.33331212  0.44152609    -0.02900
C354        C  0.41078184  0.30580698  0.43914304    -0.02900
C355        C  0.38622102  0.29791996  0.46221283     0.07000
C356        C  0.38065781  0.31948427  0.48706225    -0.03100
Br357      Br  0.34769548  0.31321663  0.51975506    -0.01600
Br358      Br  0.39707051  0.36893523  0.52861859    -0.01700
Br359      Br  0.41714671  0.28093320  0.40187678    -0.01700
Br360      Br  0.46867522  0.33630748  0.41584732    -0.01600
C361        C  0.02124071  0.15874616  0.48823909    -0.02800
C362        C  0.03651813  0.13146903  0.49716019     0.06900
C363        C  0.06928835  0.13333297  0.50139539    -0.02900
C364        C  0.08680935  0.16115479  0.49533943    -0.02900
C365        C  0.07135769  0.18975088  0.48937368     0.07000
C366        C  0.03850968  0.18725676  0.48336656    -0.03100
Br367      Br  0.01770365  0.21983590  0.46199878    -0.01600
Br368      Br  0.47763605  0.15649590  0.48239306    -0.01700
Br369      Br  0.13358473  0.15682331  0.99405345    -0.01700
Br370      Br  0.09082118  0.09752271  0.01989711    -0.01600
C371        C  0.06722171  0.36183598  0.02453205    -0.02800
C372        C  0.05008915  0.37175479  0.99954148     0.06900
C373        C  0.05144905  0.35266766  0.47236880    -0.02900
C374        C  0.05899136  0.32109169  0.47358257    -0.02900
C375        C  0.07502930  0.30997999  0.49861817     0.07000
C376        C  0.08180592  0.33244652  0.02309948    -0.03100
Br377      Br  0.11312143  0.32517685  0.05182844    -0.01600
Br378      Br  0.07423299  0.38913898  0.05932932    -0.01700
Br379      Br  0.05005017  0.29425665  0.43902740    -0.01700
Br380      Br  0.04941894  0.36990837  0.43079977    -0.01600
C381        C  0.46691260  0.07817110  0.12975564    -0.02800
C382        C  0.48524212  0.05097939  0.12132400     0.06900
C383        C  0.00402972  0.03888924  0.14424583    -0.02900
C384        C  0.00391810  0.05316528  0.17443253    -0.02900
C385        C  0.48435111  0.07966022  0.18380028     0.07000
C386        C  0.46452996  0.09010078  0.16077326    -0.03100
Br387      Br  0.43023045  0.11820254  0.17210872    -0.01600
Br388      Br  0.44554666  0.10247296  0.09962385    -0.01700
Br389      Br  0.03219873  0.03608331  0.20262452    -0.01700
Br390      Br  0.03136273  0.00351525  0.13577509    -0.01600
C391        C  0.99401260  0.11468619  0.33147378    -0.02800
C392        C  0.50050101  0.09602173  0.30482151     0.06900
C393        C  0.52472399  0.07342509  0.30774057    -0.02900
C394        C  0.53387382  0.06465351  0.33728560    -0.02900
C395        C  0.52024684  0.07885106  0.36379130     0.07000
C396        C  0.00396508  0.10560452  0.36066698    -0.03100
Br397      Br  0.00237651  0.13275169  0.39654408    -0.01600
Br398      Br  0.97910450  0.15709111  0.32947437    -0.01700
Br399      Br  0.56846112  0.03702062  0.34242893    -0.01700
Br400      Br  0.55069524  0.05847901  0.27285293    -0.01600
C401        C  0.39627447  0.14898182  0.25839937    -0.02800
C402        C  0.42502376  0.15891128  0.24165642     0.06900
C403        C  0.42413275  0.18809267  0.22593464    -0.02900
C404        C  0.39563084  0.20565032  0.22657725    -0.02900
C405        C  0.36839639  0.19640586  0.24511147     0.07000
C406        C  0.37000261  0.16904037  0.26268909    -0.03100
Br407      Br  0.33720287  0.16062644  0.29499828    -0.01600
Br408      Br  0.38946201  0.10615115  0.27141030    -0.01700
Br409      Br  0.39343766  0.24295909  0.20231618    -0.01700
Br410      Br  0.46107082  0.20514387  0.20329557    -0.01600
C411        C  0.07754524  0.19558840  0.25673206    -0.02800
C412        C  0.10357368  0.17751680  0.24621772     0.06900
C413        C  0.09889054  0.15281804  0.22546673    -0.02900
C414        C  0.06897247  0.14731876  0.21392842    -0.02900
C415        C  0.04213656  0.16313169  0.22674503     0.07000
C416        C  0.04700323  0.18821837  0.24748016    -0.03100
Br417      Br  0.01114769  0.20970345  0.26678360    -0.01600
Br418      Br  0.08426673  0.23135740  0.28285784    -0.01700
Br419      Br  0.06383416  0.11557760  0.18312491    -0.01700
Br420      Br  0.13385103  0.12594267  0.21414052    -0.01600
C421        C  0.49174718  0.10663740  0.77214425     0.85600
C422        C  0.46071812  0.12460679  0.77114400    -0.54700
C423        C  0.45553897  0.13928424  0.74367352     0.08500
C424        C  0.98382296  0.13300994  0.71802130     0.19400
C425        C  0.48983366  0.08336405  0.74426232    -0.55400
C426        C  0.48650614  0.09694882  0.71534858     0.08600
C427        C  0.01685146  0.12568118  0.76130214    -0.54900
C428        C  0.01473690  0.14093364  0.73459255     0.09200
H429        H  0.44415213  0.12587284  0.79135164     0.15700
H430        H  0.98293154  0.14540210  0.69565578    -0.00600
H431        H  0.48995382  0.05838990  0.74768609     0.14000
H432        H  0.03742118  0.12857670  0.77510439     0.13800
O433        O  0.03480982  0.05341459  0.90983336    -0.81100
O434        O  0.38073661  0.47365912  0.96671011    -0.82600
O435        O  0.45401073  0.48491609  0.88246241    -0.79600
O436        O  0.42362668  0.06712619  0.93574729    -0.78000
O437        O  0.42871695  0.08417050  0.98546917    -0.79800
O438        O  0.48312957  0.44219650  0.89283478    -0.80700
O439        O  0.39587432  0.50634318  0.92642997    -0.82100
O440        O  0.48393578  0.05012373  0.89479852    -0.82400
Eu441      Eu  0.45156325  0.01737471  0.93023537     2.39200
O442        O  0.42849255  0.01511165  0.98147450    -0.89900
O443        O  0.50279059  0.49695859  0.92839459    -0.93500
C444        C  0.51267722  0.06024242  0.89196000     1.01200
C445        C  0.37516837  0.48982532  0.94230232     1.01000
C446        C  0.46716943  0.45877546  0.87466420     1.01000
C447        C  0.41873274  0.08684170  0.95809237     0.98800
H448        H  0.43356657  0.45271291  0.93459742     0.28600
O449        O  0.44669251  0.46495223  0.94760046    -1.02200
H450        H  0.48309394  0.06865571  0.95536696     0.28600
O451        O  0.48190348  0.04749343  0.96308250    -1.04800
O452        O  0.42927376  0.43606282  0.55142004    -0.82000
O453        O  0.08201397  0.01861292  0.99101054    -0.81600
O454        O  0.46322981  0.39642861  0.95084820    -0.80000
O455        O  0.40109714  0.03647664  0.53752204    -0.83300
O456        O  0.49500100  0.09349705  0.51047250    -0.81200
O457        O  0.05369247  0.44798361  0.92040385    -0.79800
O458        O  0.03512515  0.42357737  0.52146305    -0.81400
O459        O  0.99871387  0.01066541  0.57914133    -0.83300
O460        O  0.02292587  0.40813634  0.97347328    -0.80000
O461        O  0.47118980  0.05086452  0.56819172    -0.82700
O462        O  0.41994149  0.40960755  0.98183347    -0.78400
O463        O  0.07356034  0.49657934  0.93086554    -0.78500
O464        O  0.03881995  0.08054640  0.97812273    -0.78100
O465        O  0.38740405  0.48579195  0.53351795    -0.81600
O466        O  0.47952419  0.44351425  0.56696043    -0.81000
O467        O  0.06198707  0.49316534  0.53370003    -0.79400
Eu468      Eu  0.42604922  0.46284254  0.49899602     2.39800
Eu469      Eu  0.03441919  0.02631018  0.96056626     2.39600
Eu470      Eu  0.49788961  0.44535453  0.94649186     2.38400
Eu471      Eu  0.45827977  0.04629591  0.51382758     2.39900
Eu472      Eu  0.00819218  0.47630549  0.53031699     2.39800
O473        O  0.00977532  0.02710939  0.51237833    -0.93800
O474        O  0.47766505  0.44511848  0.99871566    -0.92700
C475        C  0.45130804  0.43283584  0.57089791     1.01400
C476        C  0.08331112  0.00717136  0.52008401     1.00100
C477        C  0.43625860  0.38937497  0.96576056     0.99500
C478        C  0.38181782  0.01246641  0.54221010     1.01500
C479        C  0.02266329  0.09992701  0.99561341     1.00400
C480        C  0.07626050  0.46895888  0.91931850     0.99300
C481        C  0.03370818  0.40209834  0.50004812     0.99300
C482        C  0.48676410  0.03594730  0.58784784     1.02000
H483        H  0.04943714  0.46599024  0.97809398     0.29300
O484        O  0.02869067  0.47509240  0.97807250    -1.05900
H485        H  0.44641763  0.49449398  0.55217026     0.31400
O486        O  0.45592126  0.49470624  0.53118333    -1.08500
C487        C  0.20853095  0.03900124  0.63281538     0.85600
C488        C  0.18960417  0.03513714  0.60453471    -0.54700
C489        C  0.19570078  0.00925490  0.58760959     0.08500
C490        C  0.22460288  0.49234082  0.59907793     0.19400
C491        C  0.20560031  0.00773885  0.65054898    -0.55400
C492        C  0.21476952  0.48302652  0.63298002     0.08600
C493        C  0.24247759  0.04016592  0.61777665    -0.54900
C494        C  0.25182212  0.01455479  0.60083289     0.09200
H495        H  0.17216239  0.05137989  0.59746538     0.13700
H496        H  0.23161816  0.47190878  0.58495607    -0.00600
H497        H  0.19770200  0.00618603  0.67501125     0.14000
H498        H  0.25740715  0.06075615  0.61914416     0.13800
O499        O  0.15399184  0.19273622  0.76675004    -0.81100
O500        O  0.22127042  0.28757412  0.62983450    -0.82600
O501        O  0.13372133  0.26968800  0.69830354    -0.79600
O502        O  0.18721930  0.18301104  0.67112950    -0.78000
O503        O  0.24008360  0.17630760  0.66427416    -0.79800
O504        O  0.14114859  0.30722156  0.73473918    -0.80700
O505        O  0.18233368  0.25164357  0.64127296    -0.82100
O506        O  0.14066040  0.20483251  0.71761056    -0.82400
Eu507      Eu  0.18173462  0.23563520  0.69450532     2.39200
O508        O  0.23473707  0.23611521  0.67611941    -0.89900
O509        O  0.17568310  0.25185814  0.74647359    -0.93500
C510        C  0.13531031  0.19178173  0.74394882     1.01200
C511        C  0.19642659  0.27169618  0.62301816     1.01000
C512        C  0.12466271  0.29404472  0.71425165     1.01000
C513        C  0.21172333  0.16642541  0.66309764     0.98800
H514        H  0.18763604  0.29996569  0.68439670     0.28600
O515        O  0.20024307  0.28684825  0.69687827    -1.02200
H516        H  0.20273921  0.18104739  0.72434151     0.28600
O517        O  0.21128989  0.20199355  0.72452491    -1.04800
O518        O  0.30450982  0.31499078  0.68124791    -0.82000
O519        O  0.23468731  0.22743490  0.82443866    -0.81600
O520        O  0.20365339  0.35005135  0.71393207    -0.80000
O521        O  0.29004353  0.20819099  0.65109035    -0.83300
O522        O  0.25441471  0.15299825  0.73677314    -0.81200
O523        O  0.17228159  0.29441734  0.80559139    -0.79800
O524        O  0.27158866  0.32683380  0.78044837    -0.81400
O525        O  0.32877754  0.23669611  0.75564881    -0.83300
O526        O  0.21855605  0.33533355  0.78610985    -0.80000
O527        O  0.31897823  0.19641501  0.72249470    -0.82700
O528        O  0.23687645  0.34036262  0.67096202    -0.78400
O529        O  0.16464833  0.24263096  0.80873275    -0.78500
O530        O  0.22421978  0.16639211  0.78050554    -0.78100
O531        O  0.28072222  0.25804109  0.63543822    -0.81600
O532        O  0.31963883  0.30490924  0.73027954    -0.81000
O533        O  0.27839201  0.25888992  0.81443137    -0.79400
Eu534      Eu  0.25341649  0.28728843  0.67672393     2.39800
Eu535      Eu  0.20631431  0.21934790  0.77584430     2.39600
Eu536      Eu  0.19546570  0.30270042  0.74934568     2.38400
Eu537      Eu  0.26502038  0.20290926  0.70552992     2.39900
Eu538      Eu  0.28076864  0.27228416  0.75885236     2.39800
O539        O  0.26027169  0.22096535  0.75722903    -0.93800
O540        O  0.24903578  0.30407142  0.72904409    -0.92700
C541        C  0.32363368  0.31763318  0.70328449     1.01400
C542        C  0.25922600  0.24282182  0.83297011     1.00100
C543        C  0.21850979  0.35818564  0.68763147     0.99500
C544        C  0.29079750  0.23031809  0.63046052     1.01500
C545        C  0.23942107  0.14624054  0.76344561     1.00400
C546        C  0.16426778  0.26935217  0.82150771     0.99300
C547        C  0.24711930  0.34407721  0.78816796     0.99300
C548        C  0.33687211  0.21106999  0.74092497     1.02000
H549        H  0.22616813  0.27769614  0.79809276     0.29300
O550        O  0.22720171  0.27004282  0.77709927    -1.05900
H551        H  0.30678726  0.25479328  0.69801864     0.31400
O552        O  0.28475592  0.25460727  0.70662193    -1.08500
C553        C  0.09138124  0.22215998  0.98945710     0.85600
C554        C  0.11788786  0.22283131  0.50974339    -0.54700
C555        C  0.13509247  0.24997960  0.50943744     0.08500
C556        C  0.12465239  0.27464621  0.98533187     0.19400
C557        C  0.07268528  0.25185310  0.99959872    -0.55400
C558        C  0.08988395  0.27923824  0.99692986     0.08600
C559        C  0.10552948  0.22985445  0.95670051    -0.54900
C560        C  0.12338924  0.25684439  0.95389080     0.09200
H561        H  0.12026452  0.20563615  0.52784837     0.13700
H562        H  0.13865427  0.29662137  0.98364272    -0.00600
H563        H  0.04808617  0.25162518  0.00840727     0.14000
H564        H  0.10200547  0.21459745  0.93706815     0.13800
C565        C  0.47716912  0.39945863  0.75228077     0.85600
C566        C  0.50580699  0.37892837  0.74788529    -0.54700
C567        C  0.50678632  0.36137715  0.72176328     0.08500
C568        C  0.47788904  0.36614988  0.70174265     0.19400
C569        C  0.47687141  0.41869268  0.72144780    -0.55400
C570        C  0.47693942  0.40110443  0.69459659     0.08600
C571        C  0.44863794  0.37707145  0.75006791    -0.54900
C572        C  0.44720756  0.36143562  0.72254394     0.09200
H573        H  0.02489108  0.37774842  0.76321180     0.13700
H574        H  0.47915818  0.35128376  0.68123250    -0.00600
H575        H  0.47460566  0.44343007  0.72117775     0.14000
H576        H  0.42896651  0.37681463  0.76761949     0.13800
C577        C  0.36508874  0.20903079  0.96116383     0.85600
C578        C  0.33750441  0.21288191  0.94126646    -0.54700
C579        C  0.31974838  0.23857216  0.94642607     0.08500
C580        C  0.33269015  0.25972730  0.97262720     0.19400
C581        C  0.38517305  0.23920939  0.95587855    -0.55400
C582        C  0.36854992  0.26668746  0.96176099     0.08600
C583        C  0.35337530  0.21252506  0.49512703    -0.54900
C584        C  0.33539590  0.23802798  0.00164070     0.09200
H585        H  0.33331192  0.19631791  0.92282903     0.13700
H586        H  0.31771211  0.28028805  0.97740696    -0.00600
H587        H  0.41060561  0.23873226  0.95078286     0.14000
H588        H  0.35951066  0.19658016  0.51332127     0.13800
C589        C  0.23650021  0.02780815  0.83519981     0.85600
C590        C  0.25792330  0.02929669  0.86230542    -0.54700
C591        C  0.25940877  0.50259331  0.87951493     0.08500
C592        C  0.23560998  0.47713914  0.86930272     0.19400
C593        C  0.24721338  0.49840319  0.81770294    -0.55400
C594        C  0.24579008  0.47131455  0.83494668     0.08600
C595        C  0.20326152  0.01782177  0.84958647    -0.54900
C596        C  0.20266536  0.49226087  0.86820035     0.09200
H597        H  0.27433023  0.04857328  0.86523116     0.13700
H598        H  0.23428789  0.45594708  0.88369996    -0.00600
H599        H  0.25488883  0.49889639  0.79327322     0.14000
H600        H  0.18157354  0.02880796  0.84376408     0.13800
C601        C  0.14464185  0.29545462  0.87375166    -0.02800
C602        C  0.15609816  0.26907145  0.85661682     0.06900
C603        C  0.16159785  0.24139934  0.87413548    -0.02900
C604        C  0.15668501  0.24094836  0.90673407    -0.02900
C605        C  0.14057133  0.26504609  0.92277791     0.07000
C606        C  0.13692504  0.29341047  0.90655513    -0.03100
Br607      Br  0.12398958  0.33028788  0.92906900    -0.01600
Br608      Br  0.13627821  0.33366055  0.85241132    -0.01700
Br609      Br  0.17387404  0.20748284  0.93038304    -0.01700
Br610      Br  0.17300125  0.20137968  0.85577303    -0.01600
C611        C  0.19751059  0.27989553  0.56374351    -0.02800
C612        C  0.18102819  0.27523360  0.59301836     0.06900
C613        C  0.14831328  0.26834091  0.59383653    -0.02900
C614        C  0.13433599  0.25743352  0.56742463    -0.02900
C615        C  0.15132150  0.25946022  0.53791160     0.07000
C616        C  0.18215157  0.27307450  0.53611345    -0.03100
Br617      Br  0.20316653  0.28257049  0.49608832    -0.01600
Br618      Br  0.24004515  0.29668609  0.56134182    -0.01700
Br619      Br  0.08983550  0.24513526  0.57262041    -0.01700
Br620      Br  0.12130286  0.27818996  0.63046548    -0.01600
C621        C  0.26695185  0.21552296  0.88374145    -0.02800
C622        C  0.26593023  0.24306420  0.86647488     0.06900
C623        C  0.27283949  0.27139482  0.88129333    -0.02900
C624        C  0.28975315  0.27165678  0.90851504    -0.02900
C625        C  0.29334009  0.24351734  0.92488778     0.07000
C626        C  0.27683280  0.21678598  0.91425248    -0.03100
Br627      Br  0.26791570  0.18139560  0.94076097    -0.01600
Br628      Br  0.25789551  0.17571495  0.86517511    -0.01700
Br629      Br  0.30970068  0.30995402  0.92032470    -0.01700
Br630      Br  0.25404965  0.30873306  0.86713083    -0.01600
C631        C  0.33498809  0.23024919  0.58956217    -0.02800
C632        C  0.30284381  0.22504744  0.59783420     0.06900
C633        C  0.28114756  0.22501510  0.57439593    -0.02900
C634        C  0.29129447  0.23223565  0.54326124    -0.02900
C635        C  0.32317784  0.24040661  0.53517915     0.07000
C636        C  0.34503043  0.23934003  0.55895357    -0.03100
Br637      Br  0.38932251  0.24921764  0.54968649    -0.01600
Br638      Br  0.36509009  0.22171012  0.61995042    -0.01700
Br639      Br  0.26188530  0.22890148  0.51141121    -0.01700
Br640      Br  0.23780022  0.21274055  0.58510146    -0.01600
C641        C  0.26740556  0.41524168  0.83530161    -0.02800
C642        C  0.25004683  0.43929035  0.82122665     0.06900
C643        C  0.23342339  0.43109972  0.79498380    -0.02900
C644        C  0.22885984  0.39965838  0.78818093    -0.02900
C645        C  0.25017460  0.37698849  0.79846066     0.07000
C646        C  0.27156030  0.38624373  0.82030213    -0.03100
Br647      Br  0.30515826  0.35931150  0.83158525    -0.01600
Br648      Br  0.28207191  0.41723538  0.87662564    -0.01700
Br649      Br  0.19038800  0.38989187  0.76795281    -0.01700
Br650      Br  0.21482178  0.46089723  0.76790284    -0.01600
C651        C  0.26465207  0.09363935  0.77527342    -0.02800
C652        C  0.23835401  0.11370634  0.77702158     0.06900
C653        C  0.21202604  0.10516241  0.79751406    -0.02900
C654        C  0.21413036  0.08104347  0.81919487    -0.02900
C655        C  0.23819702  0.05840170  0.81532039     0.07000
C656        C  0.26448126  0.06608792  0.79377057    -0.03100
Br657      Br  0.30291138  0.04226424  0.79182379    -0.01600
Br658      Br  0.30159788  0.10406697  0.74839916    -0.01700
Br659      Br  0.19082469  0.08754946  0.85892303    -0.01700
Br660      Br  0.17166307  0.12575749  0.79656363    -0.01600
C661        C  0.35809983  0.36055448  0.71931140    -0.02800
C662        C  0.35283705  0.33626224  0.69854912     0.06900
C663        C  0.37838921  0.32495683  0.67961153    -0.02900
C664        C  0.40968342  0.33175792  0.68727492    -0.02900
C665        C  0.41517003  0.35520669  0.70990076     0.07000
C666        C  0.38847487  0.37287010  0.72123837    -0.03100
Br667      Br  0.39105664  0.41509550  0.73680625    -0.01600
Br668      Br  0.32488410  0.37485823  0.74829158    -0.01700
Br669      Br  0.44248910  0.30604439  0.66808629    -0.01700
Br670      Br  0.37007711  0.29938121  0.64431691    -0.01600
C671        C  0.09370098  0.34257498  0.70641688    -0.02800
C672        C  0.09407964  0.30967715  0.70857167     0.06900
C673        C  0.06491683  0.29325501  0.70860523    -0.02900
C674        C  0.03599239  0.30946273  0.71271818    -0.02900
C675        C  0.03591160  0.34226405  0.71219669     0.07000
C676        C  0.06492092  0.35864188  0.70740215    -0.03100
Br677      Br  0.06548785  0.40361848  0.70372504    -0.01600
Br678      Br  0.13261512  0.36634546  0.70133791    -0.01700
Br679      Br  0.99717233  0.28693991  0.72339207    -0.01700
Br680      Br  0.06412350  0.24915338  0.70170266    -0.01600
C681        C  0.23289660  0.44483229  0.67275966    -0.02800
C682        C  0.21627365  0.45023508  0.64585921     0.06900
C683        C  0.20230357  0.42391391  0.63160074    -0.02900
C684        C  0.20057884  0.39465917  0.64685884    -0.02900
C685        C  0.21521401  0.39024630  0.67496012     0.07000
C686        C  0.23310502  0.41497608  0.68636114    -0.03100
Br687      Br  0.26249495  0.40648291  0.71699999    -0.01600
Br688      Br  0.26017414  0.47661650  0.68834591    -0.01700
Br689      Br  0.17982114  0.35968603  0.62803786    -0.01700
Br690      Br  0.18867842  0.42509007  0.58978814    -0.01600
C691        C  0.23118532  0.11204262  0.66631911    -0.02800
C692        C  0.20809978  0.13286252  0.65613603     0.06900
C693        C  0.17961135  0.12035578  0.64581171    -0.02900
C694        C  0.17503197  0.08781895  0.64525124    -0.02900
C695        C  0.19997869  0.06791686  0.65235866     0.07000
C696        C  0.22382610  0.08058344  0.66940746    -0.03100
Br697      Br  0.24635381  0.05503410  0.69671713    -0.01600
Br698      Br  0.27542253  0.12284670  0.66957856    -0.01700
Br699      Br  0.13280509  0.07096293  0.64230884    -0.01700
Br700      Br  0.14892472  0.14674900  0.62814128    -0.01600
C701        C  0.46710924  0.39445906  0.60801629    -0.02800
C702        C  0.44595110  0.41830223  0.60182386     0.06900
C703        C  0.43536899  0.43808754  0.62636610    -0.02900
C704        C  0.44658859  0.43487147  0.65646641    -0.02900
C705        C  0.46929179  0.41154578  0.66230412     0.07000
C706        C  0.48115164  0.39340437  0.63663345    -0.03100
Br707      Br  0.52103308  0.37194618  0.63791170    -0.01600
Br708      Br  0.48061289  0.36629743  0.57487159    -0.01700
Br709      Br  0.43320352  0.46615369  0.68656665    -0.01700
Br710      Br  0.40840188  0.47244647  0.61707116    -0.01600
C711        C  0.45923545  0.41413932  0.83938039    -0.02800
C712        C  0.46482411  0.44618072  0.84273900     0.06900
C713        C  0.47531682  0.46367319  0.81635661    -0.02900
C714        C  0.48278837  0.44876920  0.78756493    -0.02900
C715        C  0.47619164  0.41642493  0.78395763     0.07000
C716        C  0.46777373  0.39895818  0.81136822    -0.03100
Br717      Br  0.97222027  0.35357988  0.81175876    -0.01600
Br718      Br  0.93537898  0.39124078  0.87046512    -0.01700
Br719      Br  0.51140116  0.47103600  0.75840894    -0.01700
Br720      Br  0.47926935  0.50820117  0.81932510    -0.01600
C721        C  0.16547053  0.46852259  0.91196396    -0.02800
C722        C  0.17122107  0.47754427  0.88034382     0.06900
C723        C  0.14535605  0.97182409  0.86056290    -0.02900
C724        C  0.11496310  0.46508518  0.87280663    -0.02900
C725        C  0.10853865  0.46203509  0.90496429     0.07000
C726        C  0.13424493  0.46114861  0.92407967    -0.03100
Br727      Br  0.12590742  0.44921077  0.96703936    -0.01600
Br728      Br  0.19922439  0.46756048  0.93972472    -0.01700
Br729      Br  0.08052591  0.95424021  0.84712266    -0.01700
Br730      Br  0.15086147  0.97688936  0.81629174    -0.01600
C731        C  0.31524307  0.48290140  0.88266669    -0.02800
C732        C  0.28769783  0.49632618  0.89747653     0.06900
C733        C  0.28951413  0.50843221  0.92775217    -0.02900
C734        C  0.31807869  0.50648982  0.94279862    -0.02900
C735        C  0.34349899  0.48874378  0.92967793     0.07000
C736        C  0.34137243  0.47620764  0.89977915    -0.03100
Br737      Br  0.37573063  0.45178194  0.88113099    -0.01600
Br738      Br  0.32059953  0.47768966  0.83818162    -0.01700
Br739      Br  0.32421434  0.53300947  0.97769744    -0.01700
Br740      Br  0.25488784  0.03096088  0.94707654    -0.01600
C741        C  0.11300890  0.00150947  0.56748183    -0.02800
C742        C  0.11391545  0.00875358  0.53548455     0.06900
C743        C  0.14481353  0.51805292  0.51947827    -0.02900
C744        C  0.17139512  0.01419421  0.53652475    -0.02900
C745        C  0.17053857  0.00071149  0.56662546     0.07000
C746        C  0.14049873  0.99350019  0.58162396    -0.03100
Br747      Br  0.13577208  0.97995010  0.62468791    -0.01600
Br748      Br  0.07588905  0.01125469  0.59414971    -0.01700
Br749      Br  0.20534837  0.54880911  0.52583351    -0.01700
Br750      Br  0.14730498  0.53251782  0.97796406    -0.01600
C751        C  0.34123966  0.03106602  0.58413181    -0.02800
C752        C  0.34841055  0.01465851  0.55640477     0.06900
C753        C  0.32388235  0.99536522  0.54495527    -0.02900
C754        C  0.29231898  0.99763474  0.55722774    -0.02900
C755        C  0.28539230  0.01263759  0.58606014     0.07000
C756        C  0.31132015  0.02709890  0.60045188    -0.03100
Br757      Br  0.30907777  0.03697079  0.64424378    -0.01600
Br758      Br  0.37317986  0.05631094  0.60195760    -0.01700
Br759      Br  0.25790687  0.48892946  0.53069873    -0.01700
Br760      Br  0.33106410  0.46251137  0.01661449    -0.01600
C761        C  0.37636793  0.12281295  0.97596704    -0.02800
C762        C  0.40008426  0.11475317  0.95321190     0.06900
C763        C  0.40728523  0.13527213  0.92812927    -0.02900
C764        C  0.39801110  0.16675326  0.93080863    -0.02900
C765        C  0.37726620  0.17583979  0.95632543     0.07000
C766        C  0.36155652  0.15116696  0.97381225    -0.03100
Br767      Br  0.31817636  0.15276979  0.99191692    -0.01600
Br768      Br  0.36357600  0.09610690  0.01080329    -0.01700
Br769      Br  0.41118073  0.19550712  0.89809584    -0.01700
Br770      Br  0.42552018  0.11950169  0.88931783    -0.01600
C771        C  0.39860581  0.34743316  0.98932095    -0.02800
C772        C  0.42172235  0.35645999  0.96537588     0.06900
C773        C  0.42897127  0.33412107  0.94174206    -0.02900
C774        C  0.40996406  0.30670872  0.93906096    -0.02900
C775        C  0.38528321  0.29870032  0.96199140     0.07000
C776        C  0.37967720  0.32014917  0.98694357    -0.03100
Br777      Br  0.34641291  0.31392900  0.01934733    -0.01600
Br778      Br  0.39672503  0.36872093  0.02920782    -0.01700
Br779      Br  0.41646359  0.28212154  0.90161187    -0.01700
Br780      Br  0.46804447  0.33716977  0.91625485    -0.01600
C781        C  0.02260540  0.15897013  0.98981119    -0.02800
C782        C  0.03782365  0.13166405  0.99860555     0.06900
C783        C  0.07029547  0.13364875  0.00392008    -0.02900
C784        C  0.08793709  0.16154925  0.99835993    -0.02900
C785        C  0.07263213  0.19010822  0.99144978     0.07000
C786        C  0.03987942  0.18743976  0.98509046    -0.03100
Br787      Br  0.01885014  0.21985676  0.96388469    -0.01600
Br788      Br  0.47613459  0.15777030  0.98589110    -0.01700
Br789      Br  0.13238119  0.15678873  0.48917509    -0.01700
Br790      Br  0.09073728  0.09721458  0.51619129    -0.01600
C791        C  0.06417344  0.35920715  0.52610321    -0.02800
C792        C  0.05029149  0.37136401  0.50007378     0.06900
C793        C  0.04855210  0.35129152  0.97316464    -0.02900
C794        C  0.05713997  0.32009767  0.97531360    -0.02900
C795        C  0.07508827  0.31053809  0.99963928     0.07000
C796        C  0.07977565  0.33044201  0.52374543    -0.03100
Br797      Br  0.11020885  0.32273431  0.55324427    -0.01600
Br798      Br  0.06284921  0.38089239  0.56505291    -0.01700
Br799      Br  0.04785988  0.29176749  0.94194361    -0.01700
Br800      Br  0.04190803  0.36518323  0.93095649    -0.01600
C801        C  0.46682114  0.07631674  0.63023489    -0.02800
C802        C  0.48674634  0.05042505  0.62112684     0.06900
C803        C  0.99572047  0.03519833  0.64559733    -0.02900
C804        C  0.99828507  0.05073249  0.67475189    -0.02900
C805        C  0.48544967  0.07889168  0.68382835     0.07000
C806        C  0.46472339  0.08836443  0.66122553    -0.03100
Br807      Br  0.42966936  0.11527827  0.67335936    -0.01600
Br808      Br  0.44326387  0.09919750  0.60079801    -0.01700
Br809      Br  0.02759993  0.03319353  0.70142689    -0.01700
Br810      Br  0.01006632  0.99264214  0.64185656    -0.01600
C811        C  0.99489867  0.11360949  0.83042558    -0.02800
C812        C  0.50072394  0.09595625  0.80481429     0.06900
C813        C  0.52544300  0.07388295  0.80772338    -0.02900
C814        C  0.53416682  0.06475783  0.83734061    -0.02900
C815        C  0.52025183  0.07879823  0.86384784     0.07000
C816        C  0.00539298  0.10451671  0.85940160    -0.03100
Br817      Br  0.00467970  0.13170855  0.89522013    -0.01600
Br818      Br  0.98216833  0.15666121  0.82811241    -0.01700
Br819      Br  0.56850845  0.03689501  0.84256819    -0.01700
Br820      Br  0.55269380  0.06066927  0.77287837    -0.01600
C821        C  0.39623154  0.14845814  0.75759710    -0.02800
C822        C  0.42515470  0.15846952  0.74129468     0.06900
C823        C  0.42460385  0.18800145  0.72618576    -0.02900
C824        C  0.39614065  0.20566761  0.72670816    -0.02900
C825        C  0.36866156  0.19631221  0.74485942     0.07000
C826        C  0.37005759  0.16864287  0.76203275    -0.03100
Br827      Br  0.33725896  0.16008524  0.79425983    -0.01600
Br828      Br  0.38924482  0.10548002  0.76997380    -0.01700
Br829      Br  0.39435891  0.24319977  0.70277783    -0.01700
Br830      Br  0.46208211  0.20547778  0.70485991    -0.01600
C831        C  0.07797155  0.19441844  0.75578781    -0.02800
C832        C  0.10425074  0.17628583  0.74622664     0.06900
C833        C  0.10010721  0.15072240  0.72641488    -0.02900
C834        C  0.07025903  0.14410652  0.71512794    -0.02900
C835        C  0.04315293  0.16060492  0.72647816     0.07000
C836        C  0.04762232  0.18641217  0.74646235    -0.03100
Br837      Br  0.01159723  0.20832423  0.76480994    -0.01600
Br838      Br  0.08417897  0.23117676  0.78076577    -0.01700
Br839      Br  0.06553831  0.10962734  0.68725269    -0.01700
Br840      Br  0.13587598  0.12453384  0.71564877    -0.01600
C841        C  0.49177406  0.60686197  0.27230776     0.85600
C842        C  0.46103977  0.62535988  0.27162579    -0.54700
C843        C  0.45568994  0.63999574  0.24418059     0.08500
C844        C  0.98358583  0.63256447  0.21774412     0.19400
C845        C  0.48920394  0.58367574  0.24444368    -0.55400
C846        C  0.48592096  0.59738313  0.21559126     0.08600
C847        C  0.01577027  0.62644441  0.26177418    -0.54900
C848        C  0.01399827  0.64119511  0.23474857     0.09200
H849        H  0.44476300  0.62692791  0.29201560     0.15700
H850        H  0.98297390  0.64479015  0.19527433    -0.00600
H851        H  0.48891278  0.55868831  0.24781067     0.14000
H852        H  0.03600187  0.62987046  0.27592699     0.13800
O853        O  0.03382738  0.55386065  0.40998305    -0.81100
O854        O  0.38150096  0.97385521  0.46506805    -0.82600
O855        O  0.45500373  0.98469660  0.38169365    -0.79600
O856        O  0.42379854  0.56687147  0.43516431    -0.78000
O857        O  0.42898525  0.58369331  0.48494095    -0.79800
O858        O  0.48380184  0.94181766  0.39221595    -0.80700
O859        O  0.39687376  0.00627126  0.42466280    -0.82100
O860        O  0.48401260  0.54961326  0.39434782    -0.82400
Eu861      Eu  0.45159832  0.51680161  0.42962773     2.39200
O862        O  0.42894028  0.51469684  0.48101736    -0.89900
O863        O  0.50357177  0.99661178  0.42781826    -0.93500
C864        C  0.51277685  0.55966043  0.39159515     1.01200
C865        C  0.37602075  0.98989656  0.44047525     1.01000
C866        C  0.46797922  0.95844298  0.37397583     1.01000
C867        C  0.41891721  0.58652579  0.45762235     0.98800
H868        H  0.43428579  0.95239698  0.43368476     0.28600
O869        O  0.44738707  0.96461273  0.44673019    -1.02200
H870        H  0.48342053  0.56784815  0.45464359     0.28600
O871        O  0.48217658  0.54671110  0.46242404    -1.04800
O872        O  0.42880151  0.93600215  0.05126928    -0.82000
O873        O  0.08171603  0.51913162  0.49118653    -0.81600
O874        O  0.46400360  0.89586400  0.45062669    -0.80000
O875        O  0.40062517  0.53792829  0.03754153    -0.83300
O876        O  0.49457651  0.59390731  0.01088381    -0.81200
O877        O  0.05413489  0.94699089  0.42191244    -0.79800
O878        O  0.03591223  0.92408731  0.02051948    -0.81400
O879        O  0.99999003  0.51067491  0.07883519    -0.83300
O880        O  0.02086446  0.90614322  0.47485582    -0.80000
O881        O  0.46958235  0.55140182  0.06874182    -0.82700
O882        O  0.42059017  0.90925640  0.48129965    -0.78400
O883        O  0.07379203  0.99585909  0.43147728    -0.78500
O884        O  0.03796172  0.58068435  0.47822634    -0.78100
O885        O  0.38767984  0.98556757  0.03445255    -0.81600
O886        O  0.47866414  0.94419430  0.06753317    -0.81000
O887        O  0.06226485  0.99369837  0.03428461    -0.79400
Eu888      Eu  0.42595774  0.96313815  0.99922067     2.39800
Eu889      Eu  0.03393788  0.52652853  0.46065816     2.39600
Eu890      Eu  0.49855132  0.94491210  0.44585244     2.38400
Eu891      Eu  0.45769794  0.54691925  0.01417438     2.39900
Eu892      Eu  0.00850353  0.97631542  0.03043182     2.39800
O893        O  0.01019058  0.52735124  0.01257481    -0.93800
O894        O  0.47827846  0.94479768  0.49801533    -0.92700
C895        C  0.45056422  0.93306872  0.07102416     1.01400
C896        C  0.08417504  0.50547752  0.01862681     1.00100
C897        C  0.43701314  0.88889786  0.46556697     0.99500
C898        C  0.38134620  0.51401196  0.04233637     1.01500
C899        C  0.02166739  0.60007272  0.49555153     1.00400
C900        C  0.07662398  0.96802988  0.42047266     0.99300
C901        C  0.03323487  0.90204287  0.99988461     0.99300
C902        C  0.48540569  0.53661340  0.08827210     1.02000
H903        H  0.04981281  0.96566029  0.47900163     0.29300
O904        O  0.02900815  0.97458815  0.47865261    -1.05900
H905        H  0.44614368  0.99469618  0.05254612     0.31400
O906        O  0.45566029  0.99499424  0.03156407    -1.08500
C907        C  0.20755164  0.53859997  0.13313932     0.85600
C908        C  0.18856842  0.53436482  0.10493174    -0.54700
C909        C  0.19594355  0.50915825  0.08736729     0.08500
C910        C  0.22413193  0.99226770  0.09958964     0.19400
C911        C  0.20596500  0.50695355  0.15027152    -0.55400
C912        C  0.21384119  0.98315699  0.13344119     0.08600
C913        C  0.24140927  0.54123321  0.11796294    -0.54900
C914        C  0.25160876  0.51626456  0.10054520     0.09200
H915        H  0.17045242  0.54995797  0.09815046     0.13700
H916        H  0.23086069  0.97159856  0.08571125    -0.00600
H917        H  0.19818244  0.50469281  0.17470834     0.14000
H918        H  0.25557482  0.56230368  0.11956666     0.13800
O919        O  0.15350907  0.69321090  0.26644870    -0.81100
O920        O  0.22159916  0.78832516  0.12959841    -0.82600
O921        O  0.13381074  0.76969996  0.19828974    -0.79600
O922        O  0.18715917  0.68280198  0.17121512    -0.78000
O923        O  0.23991016  0.67462647  0.16556827    -0.79800
O924        O  0.14128371  0.80707046  0.23488242    -0.80700
O925        O  0.18278885  0.75224559  0.14091247    -0.82100
O926        O  0.14053555  0.70464039  0.21701964    -0.82400
Eu927      Eu  0.18180107  0.73569130  0.19416567     2.39200
O928        O  0.23483969  0.73620326  0.17568810    -0.89900
O929        O  0.17561509  0.75208402  0.24612668    -0.93500
C930        C  0.13495066  0.69192480  0.24352508     1.01200
C931        C  0.19681376  0.77241752  0.12270017     1.01000
C932        C  0.12477614  0.79396280  0.21438959     1.01000
C933        C  0.21133010  0.66553344  0.16379748     0.98800
H934        H  0.18779609  0.80008041  0.18426616     0.28600
O935        O  0.20038844  0.78691310  0.19671624    -1.02200
H936        H  0.20269168  0.68141609  0.22437163     0.28600
O937        O  0.21126009  0.70235451  0.22447084    -1.04800
O938        O  0.30477158  0.81505432  0.18118302    -0.82000
O939        O  0.23474503  0.72715957  0.32430208    -0.81600
O940        O  0.20388066  0.85002510  0.21388729    -0.80000
O941        O  0.29023715  0.70849532  0.15110132    -0.83300
O942        O  0.25426053  0.65359924  0.23714801    -0.81200
O943        O  0.17279629  0.79508477  0.30562960    -0.79800
O944        O  0.27159727  0.82734975  0.27930398    -0.81400
O945        O  0.32878218  0.73711954  0.25568906    -0.83300
O946        O  0.21861390  0.83573880  0.28558319    -0.80000
O947        O  0.31886233  0.69669170  0.22276030    -0.82700
O948        O  0.23745192  0.84069343  0.17110544    -0.78400
O949        O  0.16414107  0.74349822  0.30815382    -0.78500
O950        O  0.22358132  0.66685962  0.28062987    -0.78100
O951        O  0.28107034  0.75834079  0.13535773    -0.81600
O952        O  0.31994375  0.80494324  0.23019306    -0.81000
O953        O  0.27854229  0.75842622  0.31413170    -0.79400
Eu954      Eu  0.25358340  0.78746329  0.17655913     2.39800
Eu955      Eu  0.20599775  0.71971798  0.27578023     2.39600
Eu956      Eu  0.19561647  0.80278911  0.24920836     2.38400
Eu957      Eu  0.26496879  0.70314954  0.20546156     2.39900
Eu958      Eu  0.28077890  0.77247066  0.25867886     2.39800
O959        O  0.25995546  0.72130498  0.25705430    -0.93800
O960        O  0.24912792  0.80420950  0.22884968    -0.92700
C961        C  0.32394954  0.81765969  0.20318293     1.01400
C962        C  0.25942836  0.74236130  0.33275040     1.00100
C963        C  0.21892813  0.85835433  0.18778639     0.99500
C964        C  0.29115681  0.73061648  0.13046019     1.01500
C965        C  0.23903285  0.64681530  0.26369287     1.00400
C966        C  0.16450006  0.76999093  0.32134027     0.99300
C967        C  0.24718366  0.84465784  0.28700011     0.99300
C968        C  0.33680281  0.71143356  0.24109470     1.02000
H969        H  0.22636552  0.77794443  0.29824156     0.29300
O970        O  0.22726752  0.77029230  0.27724362    -1.05900
H971        H  0.30685209  0.75488965  0.19790349     0.31400
O972        O  0.28482686  0.75475724  0.20647429    -1.08500
C973        C  0.09125920  0.72163320  0.48866089     0.85600
C974        C  0.11907012  0.72317165  0.00892292    -0.54700
C975        C  0.13587198  0.75056916  0.00873477     0.08500
C976        C  0.12509952  0.77375801  0.48500094     0.19400
C977        C  0.07277771  0.75151632  0.49865862    -0.55400
C978        C  0.09030623  0.77875487  0.49634510     0.08600
C979        C  0.10581772  0.72925760  0.45604293    -0.54900
C980        C  0.12396902  0.75607474  0.45350626     0.09200
H981        H  0.12220370  0.70573963  0.02660378     0.13700
H982        H  0.13936642  0.79555759  0.48355961    -0.00600
H983        H  0.04807610  0.75147378  0.50714058     0.14000
H984        H  0.10230356  0.71412486  0.43631478     0.13800
C985        C  0.47761803  0.89894220  0.25169620     0.85600
C986        C  0.50650777  0.87883553  0.24706171    -0.54700
C987        C  0.50751650  0.86133779  0.22091758     0.08500
C988        C  0.47832487  0.86567897  0.20117747     0.19400
C989        C  0.47682912  0.91817834  0.22089878    -0.55400
C990        C  0.47686416  0.90060038  0.19402040     0.08600
C991        C  0.44936358  0.87618063  0.24972028    -0.54900
C992        C  0.44784617  0.86063181  0.22218207     0.09200
H993        H  0.02507716  0.87763916  0.26299793     0.13700
H994        H  0.47952205  0.85066510  0.18079763    -0.00600
H995        H  0.47436584  0.94289561  0.22075932     0.14000
H996        H  0.42977804  0.87575451  0.26736919     0.13800
C997        C  0.36482388  0.70897295  0.46136569     0.85600
C998        C  0.33737518  0.71307374  0.44130901    -0.54700
C999        C  0.31985554  0.73895960  0.44638061     0.08500
C1000       C  0.33273960  0.75995272  0.47274232     0.19400
C1001       C  0.38513276  0.73905868  0.45631659    -0.55400
C1002       C  0.36868503  0.76663557  0.46217361     0.08600
C1003       C  0.35373264  0.71301904  0.99511622    -0.54900
C1004       C  0.33505970  0.73811848  0.50172420     0.09200
H1005       H  0.33298171  0.69648557  0.42294581     0.13700
H1006       H  0.31795771  0.78069436  0.47739644    -0.00600
H1007       H  0.41057438  0.73845627  0.45128846     0.14000
H1008       H  0.35999314  0.69702339  0.01322080     0.13800
C1009       C  0.23633222  0.52848040  0.33529835     0.85600
C1010       C  0.25813313  0.53016436  0.36205773    -0.54700
C1011       C  0.25933388  0.00269222  0.37823918     0.08500
C1012       C  0.23548404  0.97713542  0.36819894     0.19400
C1013       C  0.24645775  0.99864902  0.31659849    -0.55400
C1014       C  0.24540807  0.97156126  0.33375048     0.08600
C1015       C  0.20321458  0.51895525  0.35026867    -0.54900
C1016       C  0.20230174  0.99203800  0.36743115     0.09200
H1017       H  0.27473435  0.54936407  0.36456877     0.13700
H1018       H  0.23452846  0.95583005  0.38244927    -0.00600
H1019       H  0.25379150  0.99920022  0.29207044     0.14000
H1020       H  0.18155371  0.53005423  0.34458734     0.13800
C1021       C  0.14558434  0.79556299  0.37406620    -0.02800
C1022       C  0.15679281  0.76935447  0.35651001     0.06900
C1023       C  0.16223133  0.74139615  0.37359601    -0.02900
C1024       C  0.15722321  0.74040024  0.40618100    -0.02900
C1025       C  0.14136935  0.76443203  0.42258245     0.07000
C1026       C  0.13811444  0.79311111  0.40685903    -0.03100
Br1027     Br  0.12611224  0.82981643  0.43010542    -0.01600
Br1028     Br  0.13692346  0.83401869  0.35334218    -0.01700
Br1029     Br  0.17385985  0.70624941  0.42929869    -0.01700
Br1030     Br  0.17342599  0.70166806  0.35454503    -0.01600
C1031       C  0.19776481  0.78121578  0.06339437    -0.02800
C1032       C  0.18140644  0.77604010  0.09266517     0.06900
C1033       C  0.14886889  0.76847828  0.09340094    -0.02900
C1034       C  0.13529021  0.75698513  0.06700599    -0.02900
C1035       C  0.15188823  0.76023577  0.03735916     0.07000
C1036       C  0.18235184  0.77470340  0.03569345    -0.03100
Br1037     Br  0.20314322  0.78517842  0.99579154    -0.01600
Br1038     Br  0.24036483  0.79781903  0.06107361    -0.01700
Br1039     Br  0.09188482  0.74124233  0.07297139    -0.01700
Br1040     Br  0.12154348  0.77773002  0.13003902    -0.01600
C1041       C  0.26610682  0.71582408  0.38447396    -0.02800
C1042       C  0.26615737  0.74292981  0.36631634     0.06900
C1043       C  0.27401222  0.77140895  0.38037020    -0.02900
C1044       C  0.29084609  0.77188449  0.40763123    -0.02900
C1045       C  0.29354038  0.74409681  0.42479264     0.07000
C1046       C  0.27625198  0.71756287  0.41491558    -0.03100
Br1047     Br  0.26689549  0.68302466  0.44246630    -0.01600
Br1048     Br  0.25508129  0.67585976  0.36741025    -0.01700
Br1049     Br  0.31186676  0.80990573  0.41853237    -0.01700
Br1050     Br  0.25677903  0.80900264  0.36491722    -0.01600
C1051       C  0.33548869  0.73040146  0.08967712    -0.02800
C1052       C  0.30330469  0.72531731  0.09787687     0.06900
C1053       C  0.28164444  0.72544786  0.07440361    -0.02900
C1054       C  0.29179229  0.73290393  0.04334196    -0.02900
C1055       C  0.32372724  0.74083861  0.03532697     0.07000
C1056       C  0.34560510  0.73949743  0.05908352    -0.03100
Br1057     Br  0.38998618  0.74902052  0.04981408    -0.01600
Br1058     Br  0.36550364  0.72157100  0.12008857    -0.01700
Br1059     Br  0.26231852  0.73012914  0.01142009    -0.01700
Br1060     Br  0.23836868  0.71284599  0.08489694    -0.01600
C1061       C  0.26791384  0.91598691  0.33322600    -0.02800
C1062       C  0.24975792  0.93975846  0.31978260     0.06900
C1063       C  0.23256540  0.93153743  0.29394373    -0.02900
C1064       C  0.22844624  0.90009624  0.28692266    -0.02900
C1065       C  0.25030721  0.87768154  0.29674568     0.07000
C1066       C  0.27219585  0.88718289  0.31798897    -0.03100
Br1067     Br  0.30655557  0.86075055  0.32840448    -0.01600
Br1068     Br  0.28317255  0.91787698  0.37428787    -0.01700
Br1069     Br  0.18977240  0.88992821  0.26722855    -0.01700
Br1070     Br  0.21221451  0.96132103  0.26814256    -0.01600
C1071       C  0.26428766  0.59425235  0.27523497    -0.02800
C1072       C  0.23803537  0.61434912  0.27724364     0.06900
C1073       C  0.21176768  0.60576983  0.29776531    -0.02900
C1074       C  0.21406152  0.58176570  0.31947184    -0.02900
C1075       C  0.23793768  0.55893302  0.31524696     0.07000
C1076       C  0.26397220  0.56640283  0.29327681    -0.03100
Br1077     Br  0.30170604  0.54152562  0.28952477    -0.01600
Br1078     Br  0.30135872  0.60507054  0.24865579    -0.01700
Br1079     Br  0.19109468  0.58861075  0.35935068    -0.01700
Br1080     Br  0.17122069  0.62603153  0.29679367    -0.01600
C1081       C  0.35870752  0.86047749  0.21906543    -0.02800
C1082       C  0.35323373  0.83620872  0.19834438     0.06900
C1083       C  0.37866473  0.82486280  0.17928179    -0.02900
C1084       C  0.41001643  0.83142109  0.18690241    -0.02900
C1085       C  0.41571715  0.85470020  0.20962560     0.07000
C1086       C  0.38917901  0.87254777  0.22103654    -0.03100
Br1087     Br  0.39211334  0.91465742  0.23688142    -0.01600
Br1088     Br  0.32557275  0.87518581  0.24779854    -0.01700
Br1089     Br  0.44259619  0.80561927  0.16749353    -0.01700
Br1090     Br  0.37012576  0.79967190  0.14378974    -0.01600
C1091       C  0.09371159  0.84251408  0.20706412    -0.02800
C1092       C  0.09419232  0.80958503  0.20887615     0.06900
C1093       C  0.06512202  0.79306342  0.20845863    -0.02900
C1094       C  0.03613952  0.80914057  0.21263422    -0.02900
C1095       C  0.03594775  0.84194657  0.21215232     0.07000
C1096       C  0.06488551  0.85841903  0.20750507    -0.03100
Br1097     Br  0.06517771  0.90330608  0.20295277    -0.01600
Br1098     Br  0.13247051  0.86664646  0.20322491    -0.01700
Br1099     Br  0.99743035  0.78638771  0.22311186    -0.01700
Br1100     Br  0.06451035  0.74910681  0.20055143    -0.01600
C1101       C  0.23219081  0.94516844  0.17328761    -0.02800
C1102       C  0.21531185  0.95044189  0.14651121     0.06900
C1103       C  0.20124193  0.92403301  0.13245833    -0.02900
C1104       C  0.19983809  0.89480084  0.14773783    -0.02900
C1105       C  0.21534887  0.89038118  0.17529079     0.07000
C1106       C  0.23327556  0.91518865  0.18644507    -0.03100
Br1107     Br  0.26369568  0.90681602  0.21611419    -0.01600
Br1108     Br  0.25813442  0.97753940  0.18980322    -0.01700
Br1109     Br  0.17821606  0.85985205  0.12978315    -0.01700
Br1110     Br  0.18698408  0.92502203  0.09091865    -0.01600
C1111       C  0.22988973  0.61080517  0.16704112    -0.02800
C1112       C  0.20696674  0.63192495  0.15704161     0.06900
C1113       C  0.17808914  0.61963953  0.14722916    -0.02900
C1114       C  0.17344064  0.58705296  0.14617233    -0.02900
C1115       C  0.19830886  0.56699138  0.15327327     0.07000
C1116       C  0.22197052  0.57952123  0.17067132    -0.03100
Br1117     Br  0.24484979  0.55378199  0.19754125    -0.01600
Br1118     Br  0.27449765  0.62077316  0.16917413    -0.01700
Br1119     Br  0.13126884  0.57033400  0.14221810    -0.01700
Br1120     Br  0.14657376  0.64641511  0.13142981    -0.01600
C1121       C  0.46575228  0.89399117  0.10755265    -0.02800
C1122       C  0.44488760  0.91812094  0.10165636     0.06900
C1123       C  0.43445567  0.93771828  0.12636089    -0.02900
C1124       C  0.44598515  0.93438550  0.15629416    -0.02900
C1125       C  0.46868251  0.91093644  0.16183644     0.07000
C1126       C  0.48007543  0.89269387  0.13600824    -0.03100
Br1127     Br  0.51987596  0.87097298  0.13660797    -0.01600
Br1128     Br  0.47851222  0.86585060  0.07413176    -0.01700
Br1129     Br  0.43302478  0.96578500  0.18642785    -0.01700
Br1130     Br  0.40720231  0.97196578  0.11743017    -0.01600
C1131       C  0.46029753  0.91357051  0.33887806    -0.02800
C1132       C  0.46555335  0.94571257  0.34209922     0.06900
C1133       C  0.47570038  0.96321357  0.31559512    -0.02900
C1134       C  0.48314868  0.94824709  0.28683851    -0.02900
C1135       C  0.47667758  0.91589270  0.28334253     0.07000
C1136       C  0.46865052  0.89840180  0.31081140    -0.03100
Br1137     Br  0.97289620  0.85273269  0.31207654    -0.01600
Br1138     Br  0.93705489  0.89027560  0.37135408    -0.01700
Br1139     Br  0.51192256  0.97028434  0.25764185    -0.01700
Br1140     Br  0.47959542  0.00777874  0.31837035    -0.01600
C1141       C  0.16578645  0.96767891  0.41154452    -0.02800
C1142       C  0.17093359  0.97719274  0.37997158     0.06900
C1143       C  0.14519991  0.47344725  0.36174116    -0.02900
C1144       C  0.11437135  0.96487814  0.37347074    -0.02900
C1145       C  0.10867198  0.96111719  0.40559873     0.07000
C1146       C  0.13480990  0.95977246  0.42409881    -0.03100
Br1147     Br  0.12740734  0.94620429  0.46668199    -0.01600
Br1148     Br  0.19994624  0.96720667  0.43883329    -0.01700
Br1149     Br  0.08060630  0.45493958  0.34840352    -0.01700
Br1150     Br  0.14989416  0.47993888  0.31760560    -0.01600
C1151       C  0.31566909  0.98368992  0.38068911    -0.02800
C1152       C  0.28802884  0.99663469  0.39583147     0.06900
C1153       C  0.29009559  0.00865702  0.42610218    -0.02900
C1154       C  0.31881139  0.00674729  0.44098359    -0.02900
C1155       C  0.34426786  0.98909496  0.42768501     0.07000
C1156       C  0.34205401  0.97702342  0.39754979    -0.03100
Br1157     Br  0.37646761  0.95303619  0.37829603    -0.01600
Br1158     Br  0.32064246  0.97896431  0.33613622    -0.01700
Br1159     Br  0.32505668  0.03322620  0.47594421    -0.01700
Br1160     Br  0.25520402  0.53298224  0.44674577    -0.01600
C1161       C  0.11436084  0.49541829  0.06557770    -0.02800
C1162       C  0.11481538  0.50593279  0.03426966     0.06900
C1163       C  0.14512862  0.01837423  0.01929219    -0.02900
C1164       C  0.17176844  0.51554568  0.03648610    -0.02900
C1165       C  0.17176241  0.50018929  0.06558759     0.07000
C1166       C  0.14248744  0.48952142  0.07967436    -0.03100
Br1167     Br  0.13911089  0.47404204  0.12218024    -0.01600
Br1168     Br  0.07585326  0.49567982  0.09267918    -0.01700
Br1169     Br  0.20636399  0.04807964  0.02521479    -0.01700
Br1170     Br  0.14686893  0.03055788  0.47766433    -0.01600
C1171       C  0.34064446  0.53408666  0.08334402    -0.02800
C1172       C  0.34800223  0.51651239  0.05636871     0.06900
C1173       C  0.32350893  0.49691860  0.04534121    -0.02900
C1174       C  0.29190866  0.50025934  0.05682359    -0.02900
C1175       C  0.28498442  0.51540865  0.08552803     0.07000
C1176       C  0.31077383  0.53026213  0.09974903    -0.03100
Br1177     Br  0.30864002  0.54050240  0.14343662    -0.01600
Br1178     Br  0.37221559  0.56059796  0.10023971    -0.01700
Br1179     Br  0.25821315  0.98700189  0.03181053    -0.01700
Br1180     Br  0.33168103  0.96268363  0.51431386    -0.01600
C1181       C  0.37678035  0.62271326  0.47612057    -0.02800
C1182       C  0.40023552  0.61460216  0.45305080     0.06900
C1183       C  0.40727924  0.63530872  0.42806779    -0.02900
C1184       C  0.39780599  0.66675472  0.43087414    -0.02900
C1185       C  0.37709840  0.67575221  0.45646834     0.07000
C1186       C  0.36176162  0.65100744  0.47411500    -0.03100
Br1187     Br  0.31840957  0.65228088  0.49237550    -0.01600
Br1188     Br  0.36473682  0.59637349  0.51143585    -0.01700
Br1189     Br  0.41079912  0.69567275  0.39825012    -0.01700
Br1190     Br  0.42628457  0.62003327  0.38937594    -0.01600
C1191       C  0.39922335  0.84728516  0.48959121    -0.02800
C1192       C  0.42249003  0.85598805  0.46561900     0.06900
C1193       C  0.42964664  0.83347596  0.44216183    -0.02900
C1194       C  0.41029080  0.80632930  0.43947872    -0.02900
C1195       C  0.38563805  0.79851388  0.46246936     0.07000
C1196       C  0.38020918  0.82002321  0.48739733    -0.03100
Br1197     Br  0.34684109  0.81406275  0.51975636    -0.01600
Br1198     Br  0.39681775  0.86931192  0.52910667    -0.01700
Br1199     Br  0.41593151  0.78208523  0.40175641    -0.01700
Br1200     Br  0.46897123  0.83593702  0.41697367    -0.01600
C1201       C  0.02195734  0.65900937  0.48884893    -0.02800
C1202       C  0.03682661  0.63178511  0.49841856     0.06900
C1203       C  0.06926407  0.63362215  0.50390121    -0.02900
C1204       C  0.08719746  0.66118193  0.49762872    -0.02900
C1205       C  0.07219450  0.68977436  0.49049257     0.07000
C1206       C  0.03951323  0.68730125  0.48390421    -0.03100
Br1207     Br  0.01924425  0.71958397  0.46186162    -0.01600
Br1208     Br  0.47762035  0.65711898  0.48227525    -0.01700
Br1209     Br  0.13244280  0.65636600  0.98880731    -0.01700
Br1210     Br  0.09034717  0.59802465  0.01876004    -0.01600
C1211       C  0.06263027  0.85902372  0.02635221    -0.02800
C1212       C  0.05029705  0.87163996  0.99974684     0.06900
C1213       C  0.05008216  0.85168036  0.47343450    -0.02900
C1214       C  0.05767751  0.82028569  0.47554698    -0.02900
C1215       C  0.07592702  0.81032453  0.49950486     0.07000
C1216       C  0.07755239  0.82988167  0.02468909    -0.03100
Br1217     Br  0.10225953  0.81927647  0.05817932    -0.01600
Br1218     Br  0.05895686  0.88038728  0.06550920    -0.01700
Br1219     Br  0.04675299  0.79259309  0.44238350    -0.01700
Br1220     Br  0.04762778  0.86715293  0.43112648    -0.01600
C1221       C  0.46682269  0.57788802  0.13019304    -0.02800
C1222       C  0.48539986  0.55094479  0.12153138     0.06900
C1223       C  0.99586910  0.53438442  0.14590194    -0.02900
C1224       C  0.99837445  0.54980051  0.17515293    -0.02900
C1225       C  0.48460440  0.57946479  0.18407201     0.07000
C1226       C  0.46451364  0.58970226  0.16123721    -0.03100
Br1227     Br  0.42979440  0.61712090  0.17305644    -0.01600
Br1228     Br  0.44520098  0.60216990  0.10030536    -0.01700
Br1229     Br  0.02692601  0.53160750  0.20229145    -0.01700
Br1230     Br  0.00824729  0.49128632  0.14248330    -0.01600
C1231       C  0.99287716  0.61389704  0.33067540    -0.02800
C1232       C  0.50082213  0.59594979  0.30485806     0.06900
C1233       C  0.52487434  0.57313829  0.30757757    -0.02900
C1234       C  0.53373220  0.56386308  0.33705091    -0.02900
C1235       C  0.52048266  0.57823009  0.36361978     0.07000
C1236       C  0.00351112  0.60510020  0.35969723    -0.03100
Br1237     Br  0.00189353  0.63233453  0.39551529    -0.01600
Br1238     Br  0.97807326  0.65633692  0.32853422    -0.01700
Br1239     Br  0.56718325  0.53486925  0.34202627    -0.01700
Br1240     Br  0.55111695  0.55863265  0.27266218    -0.01600
C1241       C  0.39639374  0.64931395  0.25860764    -0.02800
C1242       C  0.42522520  0.65913796  0.24191260     0.06900
C1243       C  0.42446803  0.68839254  0.22627705    -0.02900
C1244       C  0.39597264  0.70599382  0.22675072    -0.02900
C1245       C  0.36858903  0.69676573  0.24508450     0.07000
C1246       C  0.37008375  0.66938878  0.26266380    -0.03100
Br1247     Br  0.33690075  0.66093124  0.29457944    -0.01600
Br1248     Br  0.38955741  0.60663372  0.27210543    -0.01700
Br1249     Br  0.39396491  0.74331929  0.20251779    -0.01700
Br1250     Br  0.46167532  0.70559517  0.20420815    -0.01600
C1251       C  0.07745458  0.69470907  0.25526494    -0.02800
C1252       C  0.10375381  0.67648728  0.24592903     0.06900
C1253       C  0.09950009  0.65048319  0.22670978    -0.02900
C1254       C  0.06963203  0.64367350  0.21552987    -0.02900
C1255       C  0.04259215  0.66054628  0.22638791     0.07000
C1256       C  0.04711761  0.68671840  0.24585728    -0.03100
Br1257     Br  0.01107419  0.70908330  0.26355351    -0.01600
Br1258     Br  0.08347584  0.73111939  0.28072141    -0.01700
Br1259     Br  0.06474699  0.60834299  0.18873790    -0.01700
Br1260     Br  0.13487008  0.62341688  0.21739903    -0.01600
C1261       C  0.49165462  0.60640054  0.77210959     0.85600
C1262       C  0.46091034  0.62476138  0.77119516    -0.54700
C1263       C  0.45586430  0.63953098  0.74377255     0.08500
C1264       C  0.98437461  0.63341801  0.71866075     0.19400
C1265       C  0.48938844  0.58327379  0.74415118    -0.55400
C1266       C  0.48627530  0.59703593  0.71526850     0.08600
C1267       C  0.01726449  0.62834729  0.76235395    -0.54900
C1268       C  0.01462261  0.64317207  0.73543529     0.09200
H1269       H  0.44437658  0.62613505  0.79142171     0.15700
H1270       H  0.98299730  0.64535915  0.69610339    -0.00600
H1271       H  0.48906214  0.55828647  0.74752094     0.14000
H1272       H  0.03754973  0.63227819  0.77630802     0.13800
O1273       O  0.03443530  0.55424530  0.91078628    -0.81100
O1274       O  0.38077023  0.97367905  0.96565657    -0.82600
O1275       O  0.45444844  0.98552933  0.88204482    -0.79600
O1276       O  0.42375573  0.56695730  0.93538214    -0.78000
O1277       O  0.42875956  0.58402284  0.98511248    -0.79800
O1278       O  0.48333070  0.94265771  0.89240027    -0.80700
O1279       O  0.39638684  0.00618598  0.92532755    -0.82100
O1280       O  0.48344956  0.54955973  0.89486084    -0.82400
Eu1281     Eu  0.45134307  0.51702081  0.93047494     2.39200
O1282       O  0.42860773  0.51512802  0.98178344    -0.89900
O1283       O  0.50303310  0.99743787  0.92827230    -0.93500
C1284       C  0.51216621  0.55966147  0.89191041     1.01200
C1285       C  0.37552074  0.98973542  0.94105217     1.01000
C1286       C  0.46749681  0.95933904  0.87423876     1.01000
C1287       C  0.41876990  0.58666044  0.95771038     0.98800
H1288       H  0.43369298  0.95298846  0.93398710     0.28600
O1289       O  0.44669820  0.96519104  0.94713806    -1.02200
H1290       H  0.48322201  0.56836150  0.95515490     0.28600
O1291       O  0.48197803  0.54723932  0.96297905    -1.04800
O1292       O  0.42995764  0.93612633  0.55101025    -0.82000
O1293       O  0.07951728  0.52257995  0.99465502    -0.81600
O1294       O  0.46373982  0.89641411  0.95048140    -0.80000
O1295       O  0.40073959  0.53721205  0.53732941    -0.83300
O1296       O  0.49472271  0.59361214  0.51003609    -0.81200
O1297       O  0.05447143  0.94656967  0.92248861    -0.79800
O1298       O  0.03383513  0.92281576  0.52213183    -0.81400
O1299       O  0.00112532  0.51073587  0.57946319    -0.83300
O1300       O  0.01579869  0.90400687  0.97727503    -0.80000
O1301       O  0.47025599  0.55088400  0.56815050    -0.82700
O1302       O  0.42027583  0.90928459  0.98142112    -0.78400
O1303       O  0.07360902  0.99608543  0.92983930    -0.78500
O1304       O  0.03734305  0.58106770  0.97807461    -0.78100
O1305       O  0.38894408  0.98477349  0.53450304    -0.81600
O1306       O  0.48014569  0.94353551  0.56680788    -0.81000
O1307       O  0.06235697  0.98927274  0.53384214    -0.79400
Eu1308     Eu  0.42685061  0.96294813  0.49880294     2.39800
Eu1309     Eu  0.03366031  0.52674484  0.96112354     2.39600
Eu1310     Eu  0.49794183  0.94571552  0.94601270     2.38400
Eu1311     Eu  0.45786942  0.54641985  0.51364893     2.39900
Eu1312     Eu  0.00761001  0.97555795  0.53026414     2.39800
O1313       O  0.01039226  0.52767972  0.51206605    -0.93800
O1314       O  0.47738840  0.94510259  0.99815990    -0.92700
C1315       C  0.45186466  0.93292689  0.57058308     1.01400
C1316       C  0.08516004  0.50541839  0.51748050     1.00100
C1317       C  0.43683693  0.88914974  0.96543271     0.99500
C1318       C  0.38096011  0.51357382  0.54170957     1.01500
C1319       C  0.02140520  0.60024247  0.99592634     1.00400
C1320       C  0.07658888  0.96792693  0.91985794     0.99300
C1321       C  0.03446189  0.90232737  0.49973143     0.99300
C1322       C  0.48576077  0.53591094  0.58781201     1.02000
H1323       H  0.05062587  0.96574645  0.97895970     0.29300
O1324       O  0.02987175  0.97480354  0.97874533    -1.05900
H1325       H  0.44742159  0.99435843  0.55207824     0.31400
O1326       O  0.45687641  0.99460401  0.53107920    -1.08500
C1327       C  0.20776585  0.53992229  0.63405831     0.85600
C1328       C  0.18878656  0.53616225  0.60569035    -0.54700
C1329       C  0.19606132  0.51115008  0.58794316     0.08500
C1330       C  0.22403745  0.99021946  0.59894914     0.19400
C1331       C  0.20549422  0.50819935  0.65102724    -0.55400
C1332       C  0.21417173  0.98202045  0.63305852     0.08600
C1333       C  0.24179769  0.54212124  0.61910908    -0.54900
C1334       C  0.25165998  0.51715537  0.60153280     0.09200
H1335       H  0.17081381  0.55192028  0.59891263     0.13700
H1336       H  0.23021458  0.96911993  0.58554007    -0.00600
H1337       H  0.19747118  0.50595483  0.67540577     0.14000
H1338       H  0.25632461  0.56293531  0.62089444     0.13800
O1339       O  0.15384360  0.69320309  0.76689063    -0.81100
O1340       O  0.22169105  0.78770557  0.62987593    -0.82600
O1341       O  0.13441964  0.76999207  0.69847267    -0.79600
O1342       O  0.18771447  0.68320186  0.67103176    -0.78000
O1343       O  0.24060421  0.67645557  0.66418834    -0.79800
O1344       O  0.14151905  0.80665433  0.73580665    -0.80700
O1345       O  0.18299702  0.75147048  0.64102334    -0.82100
O1346       O  0.14081752  0.70530610  0.71763604    -0.82400
Eu1347     Eu  0.18218854  0.73566774  0.69442183     2.39200
O1348       O  0.23516900  0.73605472  0.67613098    -0.89900
O1349       O  0.17606940  0.75170029  0.74641425    -0.93500
C1350       C  0.13519681  0.69244474  0.74404631     1.01200
C1351       C  0.19700683  0.77169406  0.62288794     1.01000
C1352       C  0.12521080  0.79394134  0.71496423     1.01000
C1353       C  0.21221757  0.66661505  0.66306573     0.98800
H1354       H  0.18790366  0.79997601  0.68437259     0.28600
O1355       O  0.20054738  0.78687046  0.69682836    -1.02200
H1356       H  0.20302882  0.68111737  0.72439552     0.28600
O1357       O  0.21160945  0.70205189  0.72464425    -1.04800
O1358       O  0.30461128  0.81508174  0.68113718    -0.82000
O1359       O  0.23436425  0.72716217  0.82499109    -0.81600
O1360       O  0.20366217  0.84952180  0.71416760    -0.80000
O1361       O  0.29056538  0.70826859  0.65123962    -0.83300
O1362       O  0.25474844  0.65315362  0.73707334    -0.81200
O1363       O  0.17320028  0.79502508  0.80558942    -0.79800
O1364       O  0.27213622  0.82671860  0.78043408    -0.81400
O1365       O  0.32916793  0.73676933  0.75591722    -0.83300
O1366       O  0.21916265  0.83558913  0.78539732    -0.80000
O1367       O  0.31929783  0.69649217  0.72278224    -0.82700
O1368       O  0.23701217  0.84024427  0.67123044    -0.78400
O1369       O  0.16424914  0.74354262  0.80781860    -0.78500
O1370       O  0.22419686  0.66636135  0.78066278    -0.78100
O1371       O  0.28078371  0.75797811  0.63548252    -0.81600
O1372       O  0.31965357  0.80507122  0.73022382    -0.81000
O1373       O  0.27831020  0.75827111  0.81479318    -0.79400
Eu1374     Eu  0.25371676  0.78722300  0.67680473     2.39800
Eu1375     Eu  0.20641766  0.71931965  0.77607888     2.39600
Eu1376     Eu  0.19598718  0.80238234  0.74940337     2.38400
Eu1377     Eu  0.26538064  0.70292007  0.70565669     2.39900
Eu1378     Eu  0.28111184  0.77212229  0.75910675     2.39800
O1379       O  0.26037943  0.72094590  0.75733821    -0.93800
O1380       O  0.24944636  0.80376072  0.72915786    -0.92700
C1381       C  0.32365491  0.81780726  0.70321345     1.01400
C1382       C  0.25903375  0.74239116  0.83346310     1.00100
C1383       C  0.21848784  0.85782942  0.68798656     0.99500
C1384       C  0.29105293  0.73033394  0.63054545     1.01500
C1385       C  0.23965229  0.64632577  0.76366928     1.00400
C1386       C  0.16480972  0.76994632  0.82117659     0.99300
C1387       C  0.24771839  0.84415542  0.78771133     0.99300
C1388       C  0.33721558  0.71115588  0.74118524     1.02000
H1389       H  0.22660935  0.77767569  0.79844532     0.29300
O1390       O  0.22759239  0.76992373  0.77748821    -1.05900
H1391       H  0.30711563  0.75479701  0.69820100     0.31400
O1392       O  0.28508423  0.75459406  0.70680147    -1.08500
C1393       C  0.09094176  0.72189792  0.98799529     0.85600
C1394       C  0.11938537  0.72304445  0.50955704    -0.54700
C1395       C  0.13647912  0.75026903  0.50884184     0.08500
C1396       C  0.12465221  0.77408793  0.98480255     0.19400
C1397       C  0.07237819  0.75165773  0.99817395    -0.55400
C1398       C  0.08971973  0.77886398  0.99578456     0.08600
C1399       C  0.10580595  0.72965283  0.95547840    -0.54900
C1400       C  0.12410739  0.75643065  0.95319035     0.09200
H1401       H  0.12183106  0.70630480  0.52805898     0.13700
H1402       H  0.13868062  0.79601063  0.98376778    -0.00600
H1403       H  0.04778199  0.75162751  0.00693686     0.14000
H1404       H  0.10252506  0.71453073  0.93569300     0.13800
C1405       C  0.47707331  0.89984418  0.75195559     0.85600
C1406       C  0.50559938  0.87914335  0.74775748    -0.54700
C1407       C  0.50663991  0.86157529  0.72164992     0.08500
C1408       C  0.47781703  0.86634850  0.70154837     0.19400
C1409       C  0.47707853  0.91897834  0.72104500    -0.55400
C1410       C  0.47706675  0.90128159  0.69423754     0.08600
C1411       C  0.44837778  0.87770872  0.74964545    -0.54900
C1412       C  0.44707284  0.86185483  0.72224098     0.09200
H1413       H  0.02447627  0.87613068  0.76406106     0.13700
H1414       H  0.47895447  0.85128754  0.68120067    -0.00600
H1415       H  0.47514245  0.94373885  0.72074399     0.14000
H1416       H  0.42852490  0.87781339  0.76699712     0.13800
C1417       C  0.36534992  0.70887067  0.96138270     0.85600
C1418       C  0.33767888  0.71287967  0.94161954    -0.54700
C1419       C  0.32017081  0.73872217  0.94675777     0.08500
C1420       C  0.33337556  0.75983522  0.97288854     0.19400
C1421       C  0.38562913  0.73892119  0.95596195    -0.55400
C1422       C  0.36921134  0.76650876  0.96193108     0.08600
C1423       C  0.35272438  0.71298080  0.49499130    -0.54900
C1424       C  0.33614384  0.73817938  0.00193178     0.09200
H1425       H  0.33321417  0.69629781  0.92327042     0.13700
H1426       H  0.31862363  0.78057731  0.97764221    -0.00600
H1427       H  0.41103592  0.73828591  0.95069692     0.14000
H1428       H  0.35887972  0.69701244  0.51315982     0.13800
C1429       C  0.23719491  0.52824360  0.83572435     0.85600
C1430       C  0.25890685  0.52934848  0.86257783    -0.54700
C1431       C  0.25881613  0.00257999  0.87927069     0.08500
C1432       C  0.23539153  0.97679461  0.86892526     0.19400
C1433       C  0.24713018  0.99811552  0.81735767    -0.55400
C1434       C  0.24589293  0.97107606  0.83462461     0.08600
C1435       C  0.20397746  0.51873351  0.85049456    -0.54900
C1436       C  0.20221605  0.99147794  0.86747337     0.09200
H1437       H  0.27553581  0.54843395  0.86552842     0.13700
H1438       H  0.23427443  0.95560840  0.88340533    -0.00600
H1439       H  0.25498129  0.99861144  0.79296968     0.14000
H1440       H  0.18239300  0.53003982  0.84490095     0.13800
C1441       C  0.14756171  0.79597932  0.87408836    -0.02800
C1442       C  0.15723206  0.76934023  0.85632634     0.06900
C1443       C  0.16177581  0.74112057  0.87325562    -0.02900
C1444       C  0.15723550  0.74027449  0.90586295    -0.02900
C1445       C  0.14212451  0.76465063  0.92244425     0.07000
C1446       C  0.14017933  0.79363559  0.90690898    -0.03100
Br1447     Br  0.13063251  0.83088683  0.93036033    -0.01600
Br1448     Br  0.14116893  0.83518511  0.85371722    -0.01700
Br1449     Br  0.17408018  0.70613403  0.92872659    -0.01700
Br1450     Br  0.17123200  0.70102497  0.85403890    -0.01600
C1451       C  0.19838459  0.78025172  0.56363554    -0.02800
C1452       C  0.18174201  0.77532973  0.59281845     0.06900
C1453       C  0.14898517  0.76861027  0.59343993    -0.02900
C1454       C  0.13499398  0.75850522  0.56674351    -0.02900
C1455       C  0.15236693  0.76008512  0.53740449     0.07000
C1456       C  0.18326557  0.77349211  0.53585011    -0.03100
Br1457     Br  0.20444242  0.78320201  0.49593551    -0.01600
Br1458     Br  0.24079490  0.79734448  0.56156028    -0.01700
Br1459     Br  0.09011217  0.74779166  0.57129010    -0.01700
Br1460     Br  0.12192562  0.77710123  0.63042650    -0.01600
C1461       C  0.26592512  0.71569344  0.88500004    -0.02800
C1462       C  0.26572241  0.74291321  0.86705921     0.06900
C1463       C  0.27353330  0.77131183  0.88127826    -0.02900
C1464       C  0.29068410  0.77166480  0.90834585    -0.02900
C1465       C  0.29372111  0.74377014  0.92526043     0.07000
C1466       C  0.27649278  0.71719189  0.91529671    -0.03100
Br1467     Br  0.26780469  0.68218574  0.94241442    -0.01600
Br1468     Br  0.25445496  0.67591609  0.86777324    -0.01700
Br1469     Br  0.31186582  0.80964058  0.91911813    -0.01700
Br1470     Br  0.25551815  0.80883566  0.86658808    -0.01600
C1471       C  0.33496919  0.73068000  0.58938132    -0.02800
C1472       C  0.30292504  0.72511507  0.59786777     0.06900
C1473       C  0.28103119  0.72497832  0.57459920    -0.02900
C1474       C  0.29089958  0.73224940  0.54341217    -0.02900
C1475       C  0.32265097  0.74078351  0.53513864     0.07000
C1476       C  0.34469044  0.73992495  0.55874184    -0.03100
Br1477     Br  0.38885038  0.75014421  0.54911630    -0.01600
Br1478     Br  0.36540999  0.72255682  0.61954329    -0.01700
Br1479     Br  0.26134150  0.72834630  0.51174163    -0.01700
Br1480     Br  0.23775467  0.71267654  0.58561809    -0.01600
C1481       C  0.26807093  0.91531540  0.83464282    -0.02800
C1482       C  0.25038158  0.93921100  0.82078636     0.06900
C1483       C  0.23373815  0.93108632  0.79455453    -0.02900
C1484       C  0.22939092  0.89968866  0.78760110    -0.02900
C1485       C  0.25080548  0.87707103  0.79785659     0.07000
C1486       C  0.27230255  0.88638101  0.81957524    -0.03100
Br1487     Br  0.30628082  0.85970999  0.83048250    -0.01600
Br1488     Br  0.28325470  0.91758930  0.87571890    -0.01700
Br1489     Br  0.19090307  0.88998675  0.76738443    -0.01700
Br1490     Br  0.21455815  0.96092140  0.76786375    -0.01600
C1491       C  0.26522129  0.59388556  0.77556999    -0.02800
C1492       C  0.23881492  0.61383461  0.77726228     0.06900
C1493       C  0.21254146  0.60524619  0.79774846    -0.02900
C1494       C  0.21490876  0.58150479  0.81973622    -0.02900
C1495       C  0.23900587  0.55888428  0.81593571     0.07000
C1496       C  0.26517380  0.56641142  0.79419620    -0.03100
Br1497     Br  0.30342495  0.54225140  0.79197900    -0.01600
Br1498     Br  0.30193424  0.60417219  0.74833836    -0.01700
Br1499     Br  0.19205113  0.58872244  0.85956376    -0.01700
Br1500     Br  0.17182545  0.62501941  0.79609402    -0.01600
C1501       C  0.35817155  0.86080172  0.71910527    -0.02800
C1502       C  0.35281888  0.83646889  0.69841768     0.06900
C1503       C  0.37832330  0.82522056  0.67936527    -0.02900
C1504       C  0.40962079  0.83191239  0.68706342    -0.02900
C1505       C  0.41513255  0.85553006  0.70949574     0.07000
C1506       C  0.38848757  0.87330442  0.72060426    -0.03100
Br1507     Br  0.39110135  0.91592639  0.73496045    -0.01600
Br1508     Br  0.32548710  0.87478690  0.74875184    -0.01700
Br1509     Br  0.44230034  0.80588006  0.66819564    -0.01700
Br1510     Br  0.37001107  0.80011684  0.64376312    -0.01600
C1511       C  0.09409975  0.84258098  0.70820542    -0.02800
C1512       C  0.09466093  0.80962702  0.70953589     0.06900
C1513       C  0.06567645  0.79303965  0.70876535    -0.02900
C1514       C  0.03660885  0.80901440  0.71251991    -0.02900
C1515       C  0.03631092  0.84181308  0.71241227     0.07000
C1516       C  0.06524212  0.85842348  0.70851238    -0.03100
Br1517     Br  0.06548391  0.90339597  0.70489930    -0.01600
Br1518     Br  0.13276530  0.86688496  0.70555895    -0.01700
Br1519     Br  0.99776520  0.78611574  0.72192444    -0.01700
Br1520     Br  0.06536463  0.74896800  0.70166601    -0.01600
C1521       C  0.23282815  0.94419852  0.67276540    -0.02800
C1522       C  0.21519034  0.94957967  0.64654426     0.06900
C1523       C  0.19992895  0.92351308  0.63319830    -0.02900
C1524       C  0.19858904  0.89434733  0.64852345    -0.02900
C1525       C  0.21482119  0.88981456  0.67562214     0.07000
C1526       C  0.23341047  0.91437533  0.68629890    -0.03100
Br1527     Br  0.26376496  0.90577951  0.71601218    -0.01600
Br1528     Br  0.26048113  0.97602488  0.68768665    -0.01700
Br1529     Br  0.17608230  0.85966088  0.63115577    -0.01700
Br1530     Br  0.18354420  0.92510436  0.59252505    -0.01600
C1531       C  0.23074965  0.61214170  0.66769917    -0.02800
C1532       C  0.20838194  0.63307543  0.65649224     0.06900
C1533       C  0.17997430  0.62093746  0.64578163    -0.02900
C1534       C  0.17441714  0.58857581  0.64638696    -0.02900
C1535       C  0.19878843  0.56832051  0.65422691     0.07000
C1536       C  0.22265925  0.58086237  0.67145496    -0.03100
Br1537     Br  0.24580237  0.55498017  0.69796156    -0.01600
Br1538     Br  0.27508981  0.62251423  0.67095338    -0.01700
Br1539     Br  0.13183297  0.57271225  0.64309448    -0.01700
Br1540     Br  0.15127096  0.64742642  0.62543132    -0.01600
C1541       C  0.46650351  0.89420755  0.60776692    -0.02800
C1542       C  0.44609722  0.91861512  0.60149908     0.06900
C1543       C  0.43614991  0.93883961  0.62589372    -0.02900
C1544       C  0.44728239  0.93545191  0.65598755    -0.02900
C1545       C  0.46940999  0.91160367  0.66190457     0.07000
C1546       C  0.48067043  0.89299816  0.63630624    -0.03100
Br1547     Br  0.52016877  0.87084009  0.63735681    -0.01600
Br1548     Br  0.47901599  0.86555988  0.57470700    -0.01700
Br1549     Br  0.43464963  0.96720554  0.68587534    -0.01700
Br1550     Br  0.41054528  0.97415758  0.61630126    -0.01600
C1551       C  0.45908387  0.91476072  0.83905657    -0.02800
C1552       C  0.46510465  0.94673791  0.84234980     0.06900
C1553       C  0.47595615  0.96406699  0.81599470    -0.02900
C1554       C  0.48323271  0.94905822  0.78722747    -0.02900
C1555       C  0.47606997  0.91682979  0.78361559     0.07000
C1556       C  0.46728762  0.89946006  0.81102553    -0.03100
Br1557     Br  0.96964684  0.85087617  0.81331053    -0.01600
Br1558     Br  0.93553098  0.88949927  0.87294314    -0.01700
Br1559     Br  0.51228736  0.97085680  0.75812214    -0.01700
Br1560     Br  0.48097194  0.00848317  0.81910238    -0.01600
C1561       C  0.16547320  0.96888994  0.91199908    -0.02800
C1562       C  0.17095159  0.97672934  0.88006540     0.06900
C1563       C  0.14576433  0.47356302  0.86053354    -0.02900
C1564       C  0.11474969  0.96324429  0.87330190    -0.02900
C1565       C  0.10871203  0.96087230  0.90553154     0.07000
C1566       C  0.13451859  0.96119873  0.92449201    -0.03100
Br1567     Br  0.12666377  0.95087395  0.96788342    -0.01600
Br1568     Br  0.19913294  0.97051778  0.93977923    -0.01700
Br1569     Br  0.08128483  0.45646858  0.84591716    -0.01700
Br1570     Br  0.15191677  0.47934195  0.81634499    -0.01600
C1571       C  0.31522091  0.98370129  0.88146573    -0.02800
C1572       C  0.28759114  0.99658242  0.89676296     0.06900
C1573       C  0.28978854  0.00851676  0.92709383    -0.02900
C1574       C  0.31864554  0.00678032  0.94166894    -0.02900
C1575       C  0.34390069  0.98900893  0.92829953     0.07000
C1576       C  0.34164668  0.97700188  0.89819323    -0.03100
Br1577     Br  0.37624290  0.95345376  0.87867165    -0.01600
Br1578     Br  0.32029626  0.97904470  0.83693172    -0.01700
Br1579     Br  0.32565113  0.03412637  0.97583364    -0.01700
Br1580     Br  0.25445266  0.53137166  0.94683463    -0.01600
C1581       C  0.11859601  0.48457761  0.55927716    -0.02800
C1582       C  0.11682240  0.50240593  0.53141652     0.06900
C1583       C  0.14367038  0.01559402  0.51994238    -0.02900
C1584       C  0.17197286  0.51898423  0.53699137    -0.02900
C1585       C  0.17248262  0.50263150  0.56543676     0.07000
C1586       C  0.14461138  0.48747167  0.57730799    -0.03100
Br1587     Br  0.13786963  0.47763040  0.62140953    -0.01600
Br1588     Br  0.08686126  0.45449144  0.57469303    -0.01700
Br1589     Br  0.20802472  0.03807012  0.52131280    -0.01700
Br1590     Br  0.14746495  0.03869263  0.97924884    -0.01600
C1591       C  0.34128779  0.53270290  0.58425958    -0.02800
C1592       C  0.34774652  0.51658059  0.55618439     0.06900
C1593       C  0.32246952  0.49861622  0.54441993    -0.02900
C1594       C  0.29110590  0.50204593  0.55673336    -0.02900
C1595       C  0.28492712  0.51606117  0.58614185     0.07000
C1596       C  0.31126052  0.52956621  0.60062962    -0.03100
Br1597     Br  0.30915565  0.53943959  0.64441435    -0.01600
Br1598     Br  0.37438515  0.55596170  0.60259152    -0.01700
Br1599     Br  0.25996854  0.98087037  0.53211544    -0.01700
Br1600     Br  0.32939253  0.96475147  0.01496079    -0.01600
C1601       C  0.37628992  0.62242000  0.97575261    -0.02800
C1602       C  0.39989268  0.61445229  0.95285063     0.06900
C1603       C  0.40673554  0.63496547  0.92769861    -0.02900
C1604       C  0.39756857  0.66646416  0.93057788    -0.02900
C1605       C  0.37732267  0.67560956  0.95645701     0.07000
C1606       C  0.36169626  0.65095809  0.97407111    -0.03100
Br1607     Br  0.31858654  0.65280856  0.99290952    -0.01600
Br1608     Br  0.36318878  0.59508357  0.00996350    -0.01700
Br1609     Br  0.41010776  0.69519744  0.89764711    -0.01700
Br1610     Br  0.42382503  0.61909691  0.88845160    -0.01600
C1611       C  0.40002437  0.84690104  0.98957361    -0.02800
C1612       C  0.42264698  0.85608218  0.96526250     0.06900
C1613       C  0.42944456  0.83387644  0.94138482    -0.02900
C1614       C  0.41041176  0.80645034  0.93894798    -0.02900
C1615       C  0.38611021  0.79839537  0.96220327     0.07000
C1616       C  0.38095334  0.81970902  0.98734093    -0.03100
Br1617     Br  0.34786257  0.81368822  0.01994036    -0.01600
Br1618     Br  0.39887448  0.86804992  0.02950222    -0.01700
Br1619     Br  0.41612716  0.78193759  0.90137067    -0.01700
Br1620     Br  0.46784799  0.83720744  0.91497628    -0.01600
C1621       C  0.02137984  0.65934372  0.98966022    -0.02800
C1622       C  0.03661442  0.63203011  0.99856462     0.06900
C1623       C  0.06935723  0.63385786  0.00277299    -0.02900
C1624       C  0.08707137  0.66143462  0.99596660    -0.02900
C1625       C  0.07180128  0.69007872  0.98971241     0.07000
C1626       C  0.03876512  0.68774655  0.98434557    -0.03100
Br1627     Br  0.01762656  0.72047217  0.96344090    -0.01600
Br1628     Br  0.47746147  0.65657074  0.98192036    -0.01700
Br1629     Br  0.13267245  0.65586978  0.49199874    -0.01700
Br1630     Br  0.08941049  0.59778906  0.52090171    -0.01600
C1631       C  0.06885718  0.86177712  0.52457425    -0.02800
C1632       C  0.05115625  0.87170407  0.50001440     0.06900
C1633       C  0.05223132  0.85328078  0.97185419    -0.02900
C1634       C  0.06047987  0.82182777  0.97276103    -0.02900
C1635       C  0.07507807  0.81025028  0.99850294     0.07000
C1636       C  0.08354037  0.83233625  0.52269020    -0.03100
Br1637     Br  0.11634392  0.82540933  0.54993263    -0.01600
Br1638     Br  0.07685607  0.88940261  0.55876890    -0.01700
Br1639     Br  0.05252069  0.79508696  0.93784995    -0.01700
Br1640     Br  0.04818493  0.87067533  0.93069191    -0.01600
C1641       C  0.46666442  0.57695537  0.62992933    -0.02800
C1642       C  0.48569184  0.55031748  0.62114409     0.06900
C1643       C  0.00558359  0.53943476  0.64396392    -0.02900
C1644       C  0.00508441  0.55320377  0.67444483    -0.02900
C1645       C  0.48493583  0.57910616  0.68369978     0.07000
C1646       C  0.46469150  0.58915011  0.66087922    -0.03100
Br1647     Br  0.43043973  0.61719071  0.67256167    -0.01600
Br1648     Br  0.44388434  0.60033250  0.60021850    -0.01700
Br1649     Br  0.03261563  0.53534233  0.70288443    -0.01700
Br1650     Br  0.03481619  0.50580286  0.63438919    -0.01600
C1651       C  0.99497447  0.61465722  0.83150134    -0.02800
C1652       C  0.50037693  0.59553647  0.80474607     0.06900
C1653       C  0.52474205  0.57311368  0.80769122    -0.02900
C1654       C  0.53334149  0.56392545  0.83730094    -0.02900
C1655       C  0.51956036  0.57810755  0.86377782     0.07000
C1656       C  0.00510533  0.60540513  0.86056110    -0.03100
Br1657     Br  0.00352117  0.63219725  0.89672039    -0.01600
Br1658     Br  0.98011782  0.65706110  0.82966908    -0.01700
Br1659     Br  0.56700945  0.53529157  0.84256650    -0.01700
Br1660     Br  0.55171948  0.55934804  0.77289759    -0.01600
C1661       C  0.39658033  0.64868710  0.75788969    -0.02800
C1662       C  0.42546363  0.65866491  0.74144661     0.06900
C1663       C  0.42485092  0.68810293  0.72620745    -0.02900
C1664       C  0.39636469  0.70569669  0.72669150    -0.02900
C1665       C  0.36899596  0.69645351  0.74506638     0.07000
C1666       C  0.37044897  0.66889802  0.76239034    -0.03100
Br1667     Br  0.33766253  0.66040752  0.79467266    -0.01600
Br1668     Br  0.38948140  0.60571257  0.77026694    -0.01700
Br1669     Br  0.39435321  0.74286358  0.70223796    -0.01700
Br1670     Br  0.46226563  0.70552128  0.70473074    -0.01600
C1671       C  0.07797166  0.69568682  0.75690514    -0.02800
C1672       C  0.10385922  0.67745905  0.74633029     0.06900
C1673       C  0.09902736  0.65292509  0.72543904    -0.02900
C1674       C  0.06909418  0.64774920  0.71382077    -0.02900
C1675       C  0.04232978  0.66357568  0.72676953     0.07000
C1676       C  0.04738313  0.68858977  0.74758386    -0.03100
Br1677     Br  0.01177058  0.71069797  0.76652746    -0.01600
Br1678     Br  0.08500163  0.73130412  0.78316883    -0.01700
Br1679     Br  0.06386195  0.61660723  0.68246485    -0.01700
Br1680     Br  0.13393175  0.62606975  0.71370999    -0.01600
C1681       C  0.99089278  0.10568329  0.27195819     0.85600
C1682       C  0.96028759  0.12426137  0.27094484    -0.54700
C1683       C  0.95548647  0.13930948  0.24359781     0.08500
C1684       C  0.48377193  0.13391945  0.21869821     0.19400
C1685       C  0.98860203  0.08283796  0.24372952    -0.55400
C1686       C  0.98575655  0.09693476  0.21491592     0.08600
C1687       C  0.51741894  0.12899974  0.26181969    -0.54900
C1688       C  0.51431323  0.14357764  0.23481864     0.09200
H1689       H  0.94356320  0.12540220  0.29101710     0.15700
H1690       H  0.48224823  0.14577040  0.19613607    -0.00600
H1691       H  0.98805817  0.05781726  0.24685491     0.14000
H1692       H  0.53797114  0.13300597  0.27537645     0.13800
O1693       O  0.53432742  0.05482750  0.41094717    -0.81100
O1694       O  0.88095937  0.47371514  0.46480037    -0.82600
O1695       O  0.95515306  0.48267140  0.38159066    -0.79600
O1696       O  0.92322730  0.06571450  0.43457950    -0.78000
O1697       O  0.92859092  0.08321549  0.48408251    -0.79800
O1698       O  0.98412393  0.44002749  0.39255405    -0.80700
O1699       O  0.89655717  0.50594967  0.42429582    -0.82100
O1700       O  0.98350620  0.04906367  0.39450480    -0.82400
Eu1701     Eu  0.95131356  0.01582191  0.42941097     2.39200
O1702       O  0.92801283  0.01388167  0.48054977    -0.89900
O1703       O  0.00324406  0.49603445  0.42764220    -0.93500
C1704       C  0.01225446  0.05910369  0.39158567     1.01200
C1705       C  0.87562070  0.48975568  0.44014408     1.01000
C1706       C  0.96828537  0.45635148  0.37411772     1.01000
C1707       C  0.91846686  0.08568123  0.45675684     0.98800
H1708       H  0.93391817  0.45159380  0.43370858     0.28600
O1709       O  0.94694056  0.46395301  0.44670966    -1.02200
H1710       H  0.98277279  0.06720833  0.45404532     0.28600
O1711       O  0.98165673  0.04610241  0.46190844    -1.04800
O1712       O  0.92920131  0.43633906  0.05114588    -0.82000
O1713       O  0.58237537  0.01913319  0.49115633    -0.81600
O1714       O  0.96346686  0.39547366  0.45112627    -0.80000
O1715       O  0.90094822  0.03713065  0.03630347    -0.83300
O1716       O  0.99522246  0.09340863  0.00987742    -0.81200
O1717       O  0.55417167  0.44716235  0.42181238    -0.79800
O1718       O  0.53459757  0.42358557  0.02356364    -0.81400
O1719       O  0.50046436  0.01096200  0.08005510    -0.83300
O1720       O  0.51886955  0.40599123  0.47590366    -0.80000
O1721       O  0.97047185  0.05122757  0.06748540    -0.82700
O1722       O  0.91987887  0.40883948  0.48150099    -0.78400
O1723       O  0.57356315  0.49629801  0.43047442    -0.78500
O1724       O  0.53878665  0.08044484  0.47910766    -0.78100
O1725       O  0.88788083  0.48508786  0.03387033    -0.81600
O1726       O  0.97912833  0.44470775  0.06719718    -0.81000
O1727       O  0.56189216  0.49270879  0.03355481    -0.79400
Eu1728     Eu  0.92590970  0.46264326  0.99853733     2.39800
Eu1729     Eu  0.53442418  0.02656357  0.46106046     2.39600
Eu1730     Eu  0.99820582  0.44449552  0.44619070     2.38400
Eu1731     Eu  0.95828129  0.04652953  0.01300522     2.39900
Eu1732     Eu  0.50783380  0.47637438  0.03126752     2.39800
O1733       O  0.50994487  0.02778503  0.01321466    -0.93800
O1734       O  0.97773767  0.44488566  0.49822487    -0.92700
C1735       C  0.95100452  0.43376796  0.07095028     1.01400
C1736       C  0.58482699  0.00515157  0.01765165     1.00100
C1737       C  0.93634763  0.38844927  0.46582372     0.99500
C1738       C  0.88116804  0.01349436  0.04083942     1.01500
C1739       C  0.52254336  0.09994018  0.49631562     1.00400
C1740       C  0.57650701  0.46834865  0.41987484     0.99300
C1741       C  0.53374100  0.40285482  0.00142911     0.99300
C1742       C  0.98599884  0.03643614  0.08724337     1.02000
H1743       H  0.54969720  0.46560349  0.47885252     0.29300
O1744       O  0.52901189  0.47482447  0.47873291    -1.05900
H1745       H  0.94647353  0.49428187  0.05129565     0.31400
O1746       O  0.95599838  0.49446944  0.03032314    -1.08500
C1747       C  0.70817123  0.03957146  0.13341599     0.85600
C1748       C  0.68949277  0.03597410  0.10483815    -0.54700
C1749       C  0.69663330  0.01087189  0.08718345     0.08500
C1750       C  0.72507897  0.49178146  0.09825079     0.19400
C1751       C  0.70584818  0.00782342  0.15035783    -0.55400
C1752       C  0.71467117  0.48261803  0.13199175     0.08600
C1753       C  0.74223149  0.04176403  0.11862916    -0.54900
C1754       C  0.75212569  0.01681238  0.10100057     0.09200
H1755       H  0.67177615  0.05192823  0.09786599     0.13700
H1756       H  0.73205464  0.47111833  0.08447660    -0.00600
H1757       H  0.69775928  0.00555472  0.17471731     0.14000
H1758       H  0.75661723  0.06267388  0.12033071     0.13800
O1759       O  0.65314286  0.19385331  0.26455772    -0.81100
O1760       O  0.72247199  0.28812844  0.12775774    -0.82600
O1761       O  0.63447100  0.27116363  0.19642790    -0.79600
O1762       O  0.68719712  0.18336631  0.16924500    -0.78000
O1763       O  0.74000178  0.17646097  0.16216961    -0.79800
O1764       O  0.64199679  0.30813193  0.23338458    -0.80700
O1765       O  0.68317285  0.25248592  0.13886338    -0.82100
O1766       O  0.64021239  0.20617523  0.21531460    -0.82400
Eu1767     Eu  0.68194727  0.23613059  0.19223139     2.39200
O1768       O  0.73506001  0.23604091  0.17439848    -0.89900
O1769       O  0.67592468  0.25200983  0.24427557    -0.93500
C1770       C  0.63449039  0.19337249  0.24174481     1.01200
C1771       C  0.69756158  0.27249812  0.12071464     1.01000
C1772       C  0.62552752  0.29540906  0.21267643     1.01000
C1773       C  0.71159673  0.16653687  0.16149877     0.98800
H1774       H  0.68835237  0.30033663  0.18246519     0.28600
O1775       O  0.70080907  0.28708820  0.19496030    -1.02200
H1776       H  0.70240213  0.18122634  0.22226938     0.28600
O1777       O  0.71112941  0.20210154  0.22243963    -1.04800
O1778       O  0.80500508  0.31444022  0.17948216    -0.82000
O1779       O  0.73366761  0.22633188  0.32292836    -0.81600
O1780       O  0.70420209  0.34977430  0.21237754    -0.80000
O1781       O  0.78986451  0.20761911  0.14921350    -0.83300
O1782       O  0.75406024  0.15272641  0.23507335    -0.81200
O1783       O  0.67265095  0.29466117  0.30352720    -0.79800
O1784       O  0.77209993  0.32648496  0.27873852    -0.81400
O1785       O  0.82863873  0.23635625  0.25497520    -0.83300
O1786       O  0.71917763  0.33532648  0.28401954    -0.80000
O1787       O  0.81893140  0.19622863  0.22159272    -0.82700
O1788       O  0.73748004  0.34009824  0.16946649    -0.78400
O1789       O  0.66376372  0.24312209  0.30558606    -0.78500
O1790       O  0.72302745  0.16586231  0.27836165    -0.78100
O1791       O  0.78048007  0.25744819  0.13355622    -0.81600
O1792       O  0.81988353  0.30378218  0.22848737    -0.81000
O1793       O  0.77766327  0.25742253  0.31296097    -0.79400
Eu1794     Eu  0.75398588  0.28703502  0.17503688     2.39800
Eu1795     Eu  0.70593724  0.21916018  0.27386233     2.39600
Eu1796     Eu  0.69610825  0.30258276  0.24754660     2.38400
Eu1797     Eu  0.76504125  0.20251882  0.20379889     2.39900
Eu1798     Eu  0.78077248  0.27171484  0.25744624     2.39800
O1799       O  0.75992125  0.22059005  0.25542961    -0.93800
O1800       O  0.74964699  0.30380557  0.22740083    -0.92700
C1801       C  0.82403947  0.31669178  0.20158307     1.01400
C1802       C  0.75832679  0.24148258  0.33150356     1.00100
C1803       C  0.71906569  0.35786236  0.18613091     0.99500
C1804       C  0.79038783  0.22968616  0.12851499     1.01500
C1805       C  0.73867467  0.14583963  0.26150537     1.00400
C1806       C  0.66401341  0.26952011  0.31893963     0.99300
C1807       C  0.74772720  0.34397014  0.28611825     0.99300
C1808       C  0.83672168  0.21077231  0.24025624     1.02000
H1809       H  0.72618543  0.27731874  0.29670336     0.29300
O1810       O  0.72724970  0.26971085  0.27568965    -1.05900
H1811       H  0.80703131  0.25414533  0.19660845     0.31400
O1812       O  0.78498065  0.25410656  0.20511913    -1.08500
C1813       C  0.59132097  0.22194904  0.48736186     0.85600
C1814       C  0.61895199  0.22380744  0.00828382    -0.54700
C1815       C  0.63625757  0.25090316  0.00715455     0.08500
C1816       C  0.62514244  0.27403592  0.48268162     0.19400
C1817       C  0.57303326  0.25187449  0.49739795    -0.55400
C1818       C  0.59046972  0.27904142  0.49436940     0.08600
C1819       C  0.60533733  0.22924182  0.45449087    -0.54900
C1820       C  0.62351068  0.25599816  0.45139055     0.09200
H1821       H  0.62157036  0.20703003  0.02673546     0.13700
H1822       H  0.63933683  0.29587045  0.48078123    -0.00600
H1823       H  0.54862426  0.25197682  0.50675197     0.14000
H1824       H  0.60139401  0.21394468  0.43498889     0.13800
C1825       C  0.97759974  0.39624895  0.25181927     0.85600
C1826       C  0.00647182  0.37624965  0.24672168    -0.54700
C1827       C  0.00720202  0.35907757  0.22036779     0.08500
C1828       C  0.97794518  0.36365959  0.20087985     0.19400
C1829       C  0.97643071  0.41585996  0.22121912    -0.55400
C1830       C  0.97633280  0.39859242  0.19413947     0.08600
C1831       C  0.94948937  0.37332522  0.24984758    -0.54900
C1832       C  0.94771935  0.35826418  0.22209200     0.09200
H1833       H  0.52507397  0.37878813  0.26275082     0.13700
H1834       H  0.97910901  0.34900223  0.18028312    -0.00600
H1835       H  0.97390855  0.44062829  0.22132127     0.14000
H1836       H  0.93019638  0.37229851  0.26776685     0.13800
C1837       C  0.86379937  0.20774932  0.45963709     0.85600
C1838       C  0.83655217  0.21211680  0.43939193    -0.54700
C1839       C  0.81922369  0.23812682  0.44447257     0.08500
C1840       C  0.83213710  0.25898221  0.47087804     0.19400
C1841       C  0.88442462  0.23773515  0.45481303    -0.55400
C1842       C  0.86822874  0.26551872  0.46059799     0.08600
C1843       C  0.85219418  0.21218282  0.99289032    -0.54900
C1844       C  0.83403646  0.23706621  0.49984213     0.09200
H1845       H  0.83197677  0.19550867  0.42109968     0.13700
H1846       H  0.81733478  0.27970559  0.47536794    -0.00600
H1847       H  0.90988347  0.23678770  0.45008170     0.14000
H1848       H  0.85844710  0.19629702  0.01108897     0.13800
C1849       C  0.73659603  0.02754075  0.33352763     0.85600
C1850       C  0.75843020  0.02926619  0.36026366    -0.54700
C1851       C  0.75928915  0.50256930  0.37742209     0.08500
C1852       C  0.73558052  0.47680186  0.36759241     0.19400
C1853       C  0.74654454  0.49794222  0.31586400    -0.55400
C1854       C  0.74559748  0.47096428  0.33320406     0.08600
C1855       C  0.70356291  0.01786610  0.34855398    -0.54900
C1856       C  0.70234697  0.49156164  0.36663502     0.09200
H1857       H  0.77495362  0.04852582  0.36278740     0.13700
H1858       H  0.73468863  0.45564847  0.38208743    -0.00600
H1859       H  0.75391466  0.49830709  0.29136864     0.14000
H1860       H  0.68186367  0.02892694  0.34297858     0.13800
C1861       C  0.64502164  0.29515585  0.37150103    -0.02800
C1862       C  0.65573486  0.26876861  0.35395984     0.06900
C1863       C  0.66036286  0.24060060  0.37095590    -0.02900
C1864       C  0.65568405  0.23975622  0.40354976    -0.02900
C1865       C  0.64028972  0.26402676  0.42005487     0.07000
C1866       C  0.63708497  0.29268103  0.40421187    -0.03100
Br1867     Br  0.62410075  0.32932299  0.42702618    -0.01600
Br1868     Br  0.63821817  0.33415712  0.35087746    -0.01700
Br1869     Br  0.67244165  0.20553057  0.42641155    -0.01700
Br1870     Br  0.67017163  0.20053160  0.35182135    -0.01600
C1871       C  0.69890519  0.28060419  0.06130567    -0.02800
C1872       C  0.68231676  0.27643784  0.09064092     0.06900
C1873       C  0.64944107  0.27043599  0.09146892    -0.02900
C1874       C  0.63520095  0.25983375  0.06507370    -0.02900
C1875       C  0.65236890  0.26089295  0.03557688     0.07000
C1876       C  0.68343763  0.27388096  0.03369261    -0.03100
Br1877     Br  0.70439570  0.28285746  0.99351288    -0.01600
Br1878     Br  0.74173568  0.29654590  0.05875439    -0.01700
Br1879     Br  0.59043447  0.24891318  0.07029621    -0.01700
Br1880     Br  0.62277941  0.28058079  0.12827328    -0.01600
C1881       C  0.76476078  0.21506025  0.38330833    -0.02800
C1882       C  0.76481797  0.24212850  0.36510735     0.06900
C1883       C  0.77265559  0.27063058  0.37910773    -0.02900
C1884       C  0.78970314  0.27114408  0.40622158    -0.02900
C1885       C  0.79263483  0.24332465  0.42326640     0.07000
C1886       C  0.77514884  0.21683474  0.41364128    -0.03100
Br1887     Br  0.76583047  0.18247154  0.44140548    -0.01600
Br1888     Br  0.75339320  0.17512206  0.36644006    -0.01700
Br1889     Br  0.81055136  0.30926215  0.41712995    -0.01700
Br1890     Br  0.75497204  0.30809915  0.36388608    -0.01600
C1891       C  0.83409292  0.23004739  0.08719336    -0.02800
C1892       C  0.80208656  0.22437834  0.09578142     0.06900
C1893       C  0.78013536  0.22397831  0.07253800    -0.02900
C1894       C  0.78995785  0.23103752  0.04126899    -0.02900
C1895       C  0.82166449  0.23973520  0.03294786     0.07000
C1896       C  0.84370877  0.23921475  0.05652176    -0.03100
Br1897     Br  0.88775748  0.24981945  0.04676393    -0.01600
Br1898     Br  0.86467093  0.22213758  0.11727057    -0.01700
Br1899     Br  0.76040094  0.22678901  0.00960232    -0.01700
Br1900     Br  0.73689686  0.21159024  0.08365916    -0.01600
C1901       C  0.76801291  0.41524278  0.33303981    -0.02800
C1902       C  0.75006222  0.43907233  0.31937069     0.06900
C1903       C  0.73319518  0.43088415  0.29329599    -0.02900
C1904       C  0.72913735  0.39947423  0.28616807    -0.02900
C1905       C  0.75079177  0.37695441  0.29621280     0.07000
C1906       C  0.77229982  0.38632668  0.31790783    -0.03100
Br1907     Br  0.80612074  0.35953538  0.32899149    -0.01600
Br1908     Br  0.78331600  0.41746671  0.37408909    -0.01700
Br1909     Br  0.69048307  0.38950503  0.26629390    -0.01700
Br1910     Br  0.71290900  0.46063053  0.26734304    -0.01600
C1911       C  0.76436770  0.09351145  0.27350858    -0.02800
C1912       C  0.73784494  0.11329433  0.27502698     0.06900
C1913       C  0.71141650  0.10439406  0.29515589    -0.02900
C1914       C  0.71373588  0.08054487  0.31708545    -0.02900
C1915       C  0.73798930  0.05800292  0.31337085     0.07000
C1916       C  0.76414105  0.06569457  0.29162988    -0.03100
Br1917     Br  0.80209873  0.04114709  0.28830477    -0.01600
Br1918     Br  0.80171940  0.10475858  0.24755588    -0.01700
Br1919     Br  0.69050204  0.08768039  0.35674401    -0.01700
Br1920     Br  0.67070762  0.12414683  0.29330089    -0.01600
C1921       C  0.85853705  0.35883336  0.21860441    -0.02800
C1922       C  0.85324056  0.33521380  0.19714903     0.06900
C1923       C  0.87874726  0.32400930  0.17813771    -0.02900
C1924       C  0.90998959  0.33009736  0.18623594    -0.02900
C1925       C  0.91556247  0.35273278  0.20963851     0.07000
C1926       C  0.88901884  0.37039167  0.22155800    -0.03100
Br1927     Br  0.89170533  0.41138183  0.24025315    -0.01600
Br1928     Br  0.82490883  0.37309292  0.24714255    -0.01700
Br1929     Br  0.94253286  0.30421454  0.16669425    -0.01700
Br1930     Br  0.87043410  0.29923362  0.14229447    -0.01600
C1931       C  0.59447295  0.34424959  0.20610211    -0.02800
C1932       C  0.59498034  0.31127706  0.20734716     0.06900
C1933       C  0.56590079  0.29481599  0.20696603    -0.02900
C1934       C  0.53690189  0.31085987  0.21123751    -0.02900
C1935       C  0.53661673  0.34367822  0.21147773     0.07000
C1936       C  0.56560231  0.36023095  0.20731261    -0.03100
Br1937     Br  0.56596179  0.40527151  0.20439739    -0.01600
Br1938     Br  0.63328571  0.36827864  0.20186827    -0.01700
Br1939     Br  0.49824792  0.28785760  0.22107859    -0.01700
Br1940     Br  0.56533862  0.25075356  0.19965778    -0.01600
C1941       C  0.73262018  0.44448528  0.17178474    -0.02800
C1942       C  0.71596594  0.44984588  0.14489940     0.06900
C1943       C  0.70200145  0.42348542  0.13060492    -0.02900
C1944       C  0.70040489  0.39423414  0.14583876    -0.02900
C1945       C  0.71561461  0.38980565  0.17356600     0.07000
C1946       C  0.73356251  0.41449242  0.18486249    -0.03100
Br1947     Br  0.76403330  0.40583452  0.21443687    -0.01600
Br1948     Br  0.75848517  0.47676597  0.18856449    -0.01700
Br1949     Br  0.67904282  0.35926957  0.12759463    -0.01700
Br1950     Br  0.68807890  0.42455731  0.08890138    -0.01600
C1951       C  0.73041845  0.11210487  0.16667945    -0.02800
C1952       C  0.70765700  0.13279652  0.15569777     0.06900
C1953       C  0.67907114  0.12026787  0.14564671    -0.02900
C1954       C  0.67410244  0.08778645  0.14601235    -0.02900
C1955       C  0.69889985  0.06789683  0.15359202     0.07000
C1956       C  0.72264378  0.08078102  0.17071591    -0.03100
Br1957     Br  0.74594786  0.05528921  0.19747498    -0.01600
Br1958     Br  0.77480372  0.12270599  0.16915793    -0.01700
Br1959     Br  0.63189957  0.07111355  0.14200265    -0.01700
Br1960     Br  0.64876847  0.14646128  0.12711043    -0.01600
C1961       C  0.96646882  0.39440892  0.10701991    -0.02800
C1962       C  0.94569060  0.41875405  0.10158463     0.06900
C1963       C  0.93507743  0.43778829  0.12669832    -0.02900
C1964       C  0.94540709  0.43287874  0.15691475    -0.02900
C1965       C  0.96818472  0.40935459  0.16206250     0.07000
C1966       C  0.98006717  0.39190946  0.13576685    -0.03100
Br1967     Br  0.01936900  0.36920504  0.13607221    -0.01600
Br1968     Br  0.98062316  0.36796262  0.07254732    -0.01700
Br1969     Br  0.92972894  0.46162953  0.18861953    -0.01700
Br1970     Br  0.90927514  0.47331852  0.11826828    -0.01600
C1971       C  0.96020794  0.41121141  0.33910006    -0.02800
C1972       C  0.96621133  0.44325945  0.34225671     0.06900
C1973       C  0.97737549  0.46026711  0.31579512    -0.02900
C1974       C  0.98445384  0.44512751  0.28707136    -0.02900
C1975       C  0.97695606  0.41302069  0.28357130     0.07000
C1976       C  0.96839420  0.39576412  0.31108265    -0.03100
Br1977     Br  0.47329693  0.35322453  0.31246262    -0.01600
Br1978     Br  0.43675052  0.39067017  0.37178012    -0.01700
Br1979     Br  0.01347605  0.46645746  0.25755472    -0.01700
Br1980     Br  0.98287544  0.50447808  0.31865367    -0.01600
C1981       C  0.66575640  0.46839974  0.41123505    -0.02800
C1982       C  0.67102862  0.47682799  0.37939528     0.06900
C1983       C  0.64526481  0.97318587  0.36004222    -0.02900
C1984       C  0.61448485  0.46423732  0.37302911    -0.02900
C1985       C  0.60866039  0.46142704  0.40525428     0.07000
C1986       C  0.63471821  0.46105711  0.42394495    -0.03100
Br1987     Br  0.62711693  0.45013560  0.46722020    -0.01600
Br1988     Br  0.69988532  0.46866659  0.43858593    -0.01700
Br1989     Br  0.57982891  0.95797250  0.34686525    -0.01700
Br1990     Br  0.65015329  0.97930604  0.31582637    -0.01600
C1991       C  0.81559612  0.48358010  0.38006300    -0.02800
C1992       C  0.78798078  0.49674768  0.39505092     0.06900
C1993       C  0.79011762  0.50932094  0.42508569    -0.02900
C1994       C  0.81876731  0.50738075  0.44003709    -0.02900
C1995       C  0.84398736  0.48914408  0.42717886     0.07000
C1996       C  0.84195241  0.47704323  0.39701851    -0.03100
Br1997     Br  0.87689077  0.45379933  0.37761444    -0.01600
Br1998     Br  0.82064970  0.47859029  0.33553024    -0.01700
Br1999     Br  0.82552817  0.53498420  0.47399753    -0.01700
Br2000     Br  0.75568602  0.03250111  0.44437314    -0.01600
C2001       C  0.61770493  0.98573775  0.06077726    -0.02800
C2002       C  0.61622920  0.00248853  0.03210671     0.06900
C2003       C  0.64469853  0.51772558  0.01910138    -0.02900
C2004       C  0.67188909  0.01807976  0.03650882    -0.02900
C2005       C  0.67256848  0.00219503  0.06518985     0.07000
C2006       C  0.64447605  0.98798042  0.07794818    -0.03100
Br2007     Br  0.63901725  0.97840831  0.12222845    -0.01600
Br2008     Br  0.58413924  0.95889439  0.07936234    -0.01700
Br2009     Br  0.70650627  0.54656451  0.02354142    -0.01700
Br2010     Br  0.64722639  0.53591235  0.47846552    -0.01600
C2011       C  0.84156793  0.03285049  0.08315313    -0.02800
C2012       C  0.84796156  0.01648413  0.05523428     0.06900
C2013       C  0.82276684  0.99812362  0.04379958    -0.02900
C2014       C  0.79142329  0.00152397  0.05614652    -0.02900
C2015       C  0.78529667  0.01586536  0.08542544     0.07000
C2016       C  0.81161922  0.02974174  0.09965806    -0.03100
Br2017     Br  0.80969284  0.04020307  0.14333188    -0.01600
Br2018     Br  0.87486259  0.05611968  0.10124465    -0.01700
Br2019     Br  0.75862767  0.48687243  0.03056085    -0.01700
Br2020     Br  0.82923463  0.46488989  0.51307862    -0.01600
C2021       C  0.87597268  0.12149191  0.47477091    -0.02800
C2022       C  0.89964588  0.11356544  0.45190754     0.06900
C2023       C  0.90635082  0.13402596  0.42666972    -0.02900
C2024       C  0.89640404  0.16535660  0.42909122    -0.02900
C2025       C  0.87598718  0.17445816  0.45483726     0.07000
C2026       C  0.86084962  0.14973283  0.47268968    -0.03100
Br2027     Br  0.81735063  0.15071382  0.49045904    -0.01600
Br2028     Br  0.86326989  0.09440043  0.50933074    -0.01700
Br2029     Br  0.90772823  0.19386092  0.39561398    -0.01700
Br2030     Br  0.92477126  0.11823162  0.38799160    -0.01600
C2031       C  0.89764620  0.34670701  0.48862579    -0.02800
C2032       C  0.92173268  0.35545497  0.46543574     0.06900
C2033       C  0.92986160  0.33276875  0.44235424    -0.02900
C2034       C  0.91094379  0.30529177  0.43924789    -0.02900
C2035       C  0.88540044  0.29745205  0.46137233     0.07000
C2036       C  0.87895946  0.31923042  0.48595359    -0.03100
Br2037     Br  0.84477773  0.31328023  0.51751146    -0.01600
Br2038     Br  0.89345228  0.36903647  0.52796360    -0.01700
Br2039     Br  0.91877196  0.28052720  0.40209631    -0.01700
Br2040     Br  0.96976188  0.33577715  0.41808290    -0.01600
C2041       C  0.52221031  0.15892825  0.48960572    -0.02800
C2042       C  0.53766487  0.13179142  0.49864321     0.06900
C2043       C  0.57041570  0.13389494  0.50281235    -0.02900
C2044       C  0.58787847  0.16158973  0.49587431    -0.02900
C2045       C  0.57231907  0.19010927  0.48973105     0.07000
C2046       C  0.53928640  0.18750671  0.48448361    -0.03100
Br2047     Br  0.51754999  0.22021842  0.46427190    -0.01600
Br2048     Br  0.97669398  0.15658319  0.48090362    -0.01700
Br2049     Br  0.63243812  0.15743514  0.98822261    -0.01700
Br2050     Br  0.59141532  0.09851935  0.01796013    -0.01600
C2051       C  0.56604742  0.36012879  0.02583636    -0.02800
C2052       C  0.54971269  0.37169826  0.00099285     0.06900
C2053       C  0.54970183  0.35217245  0.47253183    -0.02900
C2054       C  0.55792482  0.32077949  0.47365334    -0.02900
C2055       C  0.57591636  0.31039578  0.49762007     0.07000
C2056       C  0.58266612  0.33198911  0.02222718    -0.03100
Br2057     Br  0.61748168  0.32676064  0.04750816    -0.01600
Br2058     Br  0.56690965  0.38168641  0.06476874    -0.01700
Br2059     Br  0.54793764  0.29351974  0.43973455    -0.01700
Br2060     Br  0.54610226  0.36873410  0.43084065    -0.01600
C2061       C  0.96706615  0.07777624  0.12899404    -0.02800
C2062       C  0.98583906  0.05092207  0.12045358     0.06900
C2063       C  0.50281514  0.03848003  0.14535138    -0.02900
C2064       C  0.50350576  0.05331336  0.17520137    -0.02900
C2065       C  0.98461717  0.07941960  0.18309728     0.07000
C2066       C  0.96494803  0.09000328  0.15993678    -0.03100
Br2067     Br  0.93149415  0.11921803  0.17080086    -0.01600
Br2068     Br  0.94490113  0.10132895  0.09887274    -0.01700
Br2069     Br  0.53282028  0.03706284  0.20281987    -0.01700
Br2070     Br  0.52720845  0.00097646  0.13812029    -0.01600
C2071       C  0.49537173  0.11622679  0.33147983    -0.02800
C2072       C  0.99951940  0.09467476  0.30466631     0.06900
C2073       C  0.02404169  0.07234316  0.30755174    -0.02900
C2074       C  0.03319296  0.06351748  0.33707889    -0.02900
C2075       C  0.01965842  0.07771624  0.36358582     0.07000
C2076       C  0.50471356  0.10687308  0.36082175    -0.03100
Br2077     Br  0.50234137  0.13380344  0.39685532    -0.01600
Br2078     Br  0.48220938  0.15914924  0.32884355    -0.01700
Br2079     Br  0.06729153  0.03534894  0.34225714    -0.01700
Br2080     Br  0.05028194  0.05769351  0.27268895    -0.01600
C2081       C  0.89611094  0.14847112  0.25752351    -0.02800
C2082       C  0.92505642  0.15843604  0.24113579     0.06900
C2083       C  0.92443602  0.18785069  0.22580535    -0.02900
C2084       C  0.89598143  0.20552018  0.22636324    -0.02900
C2085       C  0.86847729  0.19610252  0.24440600     0.07000
C2086       C  0.86991049  0.16862280  0.26182205    -0.03100
Br2087     Br  0.83713968  0.16033980  0.29417637    -0.01600
Br2088     Br  0.88887259  0.10551570  0.26993006    -0.01700
Br2089     Br  0.89424216  0.24331714  0.20283975    -0.01700
Br2090     Br  0.96168898  0.20501214  0.20379648    -0.01600
C2091       C  0.57729978  0.19683317  0.25460626    -0.02800
C2092       C  0.60315724  0.17855030  0.24409982     0.06900
C2093       C  0.59834851  0.15374688  0.22356817    -0.02900
C2094       C  0.56836310  0.14823190  0.21228493    -0.02900
C2095       C  0.54163692  0.16402961  0.22536873     0.07000
C2096       C  0.54667917  0.18941521  0.24568617    -0.03100
Br2097     Br  0.51103624  0.21116211  0.26506121    -0.01600
Br2098     Br  0.58431286  0.23268610  0.28053491    -0.01700
Br2099     Br  0.56312635  0.11666808  0.18133745    -0.01700
Br2100     Br  0.63332245  0.12692038  0.21207531    -0.01600
C2101       C  0.98992274  0.10458705  0.77123431     0.85600
C2102       C  0.96011308  0.12455893  0.77054551    -0.54700
C2103       C  0.95564088  0.13981470  0.74318235     0.08500
C2104       C  0.48400107  0.13354262  0.71855702     0.19400
C2105       C  0.98629444  0.08203822  0.74301473    -0.55400
C2106       C  0.98386784  0.09640230  0.71428857     0.08600
C2107       C  0.51726298  0.12933675  0.76205638    -0.54900
C2108       C  0.51416882  0.14388295  0.73503673     0.09200
H2109       H  0.94348697  0.12620726  0.79069764     0.15700
H2110       H  0.48227283  0.14531080  0.69594557    -0.00600
H2111       H  0.98454267  0.05703389  0.74603817     0.14000
H2112       H  0.53759012  0.13368617  0.77583433     0.13800
O2113       O  0.53405186  0.05514636  0.91133775    -0.81100
O2114       O  0.88054558  0.47320765  0.96500366    -0.82600
O2115       O  0.95381396  0.48455610  0.88123637    -0.79600
O2116       O  0.92529087  0.06686186  0.93422960    -0.78000
O2117       O  0.93048001  0.08421103  0.98383924    -0.79800
O2118       O  0.98287544  0.44177276  0.89145235    -0.80700
O2119       O  0.89612566  0.50547300  0.92449230    -0.82100
O2120       O  0.98465507  0.04810814  0.89345941    -0.82400
Eu2121     Eu  0.95228107  0.01627986  0.92934975     2.39200
O2122       O  0.92913330  0.01488764  0.98055452    -0.89900
O2123       O  0.00285245  0.49685168  0.92762247    -0.93500
C2124       C  0.01335868  0.05819193  0.89047278     1.01200
C2125       C  0.87523715  0.48915432  0.94032599     1.01000
C2126       C  0.96688852  0.45838244  0.87337616     1.01000
C2127       C  0.92058601  0.08684069  0.95642420     0.98800
H2128       H  0.93337294  0.45234379  0.93334783     0.28600
O2129       O  0.94646422  0.46453726  0.94642618    -1.02200
H2130       H  0.98412923  0.06760799  0.95389914     0.28600
O2131       O  0.98276908  0.04654298  0.96185318    -1.04800
O2132       O  0.92979227  0.43625686  0.55103657    -0.82000
O2133       O  0.58122375  0.02075555  0.99248988    -0.81600
O2134       O  0.96251033  0.39600938  0.94986291    -0.80000
O2135       O  0.90028834  0.03598658  0.53595196    -0.83300
O2136       O  0.99407231  0.09299170  0.50945696    -0.81200
O2137       O  0.55404836  0.44764891  0.92246182    -0.79800
O2138       O  0.53427830  0.42300616  0.52225135    -0.81400
O2139       O  0.50134109  0.00999760  0.58003017    -0.83300
O2140       O  0.51952876  0.40707041  0.97698618    -0.80000
O2141       O  0.96649350  0.05015766  0.56773302    -0.82700
O2142       O  0.91908132  0.40912587  0.98068622    -0.78400
O2143       O  0.57329627  0.49685123  0.93109712    -0.78500
O2144       O  0.53753106  0.08127175  0.97974418    -0.78100
O2145       O  0.88752536  0.48528435  0.53324912    -0.81600
O2146       O  0.97990362  0.44436847  0.56684193    -0.81000
O2147       O  0.56191425  0.49107167  0.53251613    -0.79400
Eu2148     Eu  0.92619253  0.46274754  0.49874289     2.39800
Eu2149     Eu  0.53366876  0.02731833  0.96175195     2.39600
Eu2150     Eu  0.99765010  0.44505514  0.94496147     2.38400
Eu2151     Eu  0.95715360  0.04580101  0.51280438     2.39900
Eu2152     Eu  0.50766601  0.47574997  0.53047040     2.39800
O2153       O  0.51088883  0.02734892  0.51252670    -0.93800
O2154       O  0.97732498  0.44412492  0.99729996    -0.92700
C2155       C  0.95177628  0.43343260  0.57058696     1.01400
C2156       C  0.58598574  0.00487410  0.51710569     1.00100
C2157       C  0.93538697  0.38891635  0.96461819     0.99500
C2158       C  0.88105536  0.01216659  0.54136980     1.01500
C2159       C  0.52146270  0.10061943  0.99727743     1.00400
C2160       C  0.57630735  0.46890802  0.92052639     0.99300
C2161       C  0.53337984  0.40213610  0.50025702     0.99300
C2162       C  0.98259004  0.03569916  0.58721860     1.02000
H2163       H  0.54967523  0.46625570  0.97958816     0.29300
O2164       O  0.52896249  0.47541677  0.97945808    -1.05900
H2165       H  0.94667179  0.49467574  0.55188440     0.31400
O2166       O  0.95616181  0.49474866  0.53089867    -1.08500
C2167       C  0.70833196  0.03990544  0.63314912     0.85600
C2168       C  0.68996603  0.03624302  0.60435109    -0.54700
C2169       C  0.69730469  0.01110129  0.58683930     0.08500
C2170       C  0.72485845  0.49136398  0.59837489     0.19400
C2171       C  0.70574497  0.00820886  0.65018315    -0.55400
C2172       C  0.71484346  0.48229375  0.63223168     0.08600
C2173       C  0.74254015  0.04199487  0.61872576    -0.54900
C2174       C  0.75251726  0.01696286  0.60128000     0.09200
H2175       H  0.67233458  0.05216585  0.59713354     0.13700
H2176       H  0.73187352  0.47076277  0.58453039    -0.00600
H2177       H  0.69744171  0.00602179  0.67449306     0.14000
H2178       H  0.75691641  0.06290600  0.62044351     0.13800
O2179       O  0.65310226  0.19361101  0.76518546    -0.81100
O2180       O  0.72258640  0.28784741  0.62788290    -0.82600
O2181       O  0.63417215  0.27133779  0.69692085    -0.79600
O2182       O  0.68683032  0.18351417  0.66925984    -0.78000
O2183       O  0.73970508  0.17695421  0.66218269    -0.79800
O2184       O  0.64165424  0.30799896  0.73420748    -0.80700
O2185       O  0.68321676  0.25230687  0.63906027    -0.82100
O2186       O  0.64006724  0.20628534  0.71607942    -0.82400
Eu2187     Eu  0.68165997  0.23618848  0.69251802     2.39200
O2188       O  0.73479924  0.23615625  0.67459548    -0.89900
O2189       O  0.67570303  0.25206444  0.74454689    -0.93500
C2190       C  0.63439737  0.19328652  0.74242341     1.01200
C2191       C  0.69768766  0.27219861  0.62083075     1.01000
C2192       C  0.62517162  0.29540516  0.71344387     1.01000
C2193       C  0.71135446  0.16689330  0.66137809     0.98800
H2194       H  0.68817410  0.30028466  0.68274144     0.28600
O2195       O  0.70065904  0.28708756  0.69526657    -1.02200
H2196       H  0.70226199  0.18125501  0.72243002     0.28600
O2197       O  0.71092960  0.20215689  0.72263738    -1.04800
O2198       O  0.80491876  0.31460447  0.68031484    -0.82000
O2199       O  0.73334497  0.22646642  0.82307279    -0.81600
O2200       O  0.70366261  0.34951044  0.71243226    -0.80000
O2201       O  0.79026231  0.20783437  0.64963211    -0.83300
O2202       O  0.75426933  0.15301655  0.73546551    -0.81200
O2203       O  0.67239969  0.29464056  0.80384108    -0.79800
O2204       O  0.77219969  0.32647485  0.77960354    -0.81400
O2205       O  0.82870663  0.23683729  0.75440109    -0.83300
O2206       O  0.71928359  0.33549075  0.78421432    -0.80000
O2207       O  0.81903999  0.19680312  0.72090014    -0.82700
O2208       O  0.73728264  0.34001413  0.66972352    -0.78400
O2209       O  0.66361657  0.24307161  0.80596308    -0.78500
O2210       O  0.72340837  0.16627793  0.77880980    -0.78100
O2211       O  0.78115282  0.25773892  0.63404099    -0.81600
O2212       O  0.81955285  0.30441913  0.72949453    -0.81000
O2213       O  0.77744640  0.25742457  0.81317059    -0.79400
Eu2214     Eu  0.75389885  0.28708609  0.67532837     2.39800
Eu2215     Eu  0.70576929  0.21927833  0.77407132     2.39600
Eu2216     Eu  0.69590526  0.30259926  0.74789342     2.38400
Eu2217     Eu  0.76485906  0.20272586  0.70396820     2.39900
Eu2218     Eu  0.78054488  0.27187372  0.75778427     2.39800
O2219       O  0.75977934  0.22070810  0.75566827    -0.93800
O2220       O  0.74941432  0.30388295  0.72769152    -0.92700
C2221       C  0.82380098  0.31717350  0.70254862     1.01400
C2222       C  0.75804541  0.24150801  0.83164038     1.00100
C2223       C  0.71866772  0.35764906  0.68629089     0.99500
C2224       C  0.79110242  0.22997786  0.62901081     1.01500
C2225       C  0.73905367  0.14622872  0.76201034     1.00400
C2226       C  0.66375541  0.26950415  0.81926127     0.99300
C2227       C  0.74782007  0.34400399  0.78679467     0.99300
C2228       C  0.83692111  0.21144949  0.73938743     1.02000
H2229       H  0.72593439  0.27746122  0.79709451     0.29300
O2230       O  0.72702830  0.26983577  0.77608667    -1.05900
H2231       H  0.80683013  0.25443555  0.69699368     0.31400
O2232       O  0.78476103  0.25429062  0.70548482    -1.08500
C2233       C  0.59062799  0.22237568  0.98763479     0.85600
C2234       C  0.61983510  0.22354027  0.50778638    -0.54700
C2235       C  0.63685284  0.25083112  0.50673226     0.08500
C2236       C  0.62489386  0.27420514  0.98303715     0.19400
C2237       C  0.57254108  0.25244240  0.99751457    -0.55400
C2238       C  0.59026950  0.27946640  0.99465138     0.08600
C2239       C  0.60494406  0.22952203  0.95479427    -0.54900
C2240       C  0.62323431  0.25621884  0.95173248     0.09200
H2241       H  0.62270897  0.20675269  0.52616548     0.13700
H2242       H  0.63926051  0.29594396  0.98114838    -0.00600
H2243       H  0.54806784  0.25274230  0.00666704     0.14000
H2244       H  0.60104655  0.21422376  0.93528352     0.13800
C2245       C  0.97786151  0.39893472  0.75131016     0.85600
C2246       C  0.00605253  0.37782527  0.74725842    -0.54700
C2247       C  0.00675631  0.36008981  0.72128323     0.08500
C2248       C  0.97806930  0.36517070  0.70115407     0.19400
C2249       C  0.97831255  0.41787064  0.72028990    -0.55400
C2250       C  0.97786756  0.40004563  0.69361620     0.08600
C2251       C  0.94884911  0.37713981  0.74911465    -0.54900
C2252       C  0.94732235  0.36113535  0.72180808     0.09200
H2253       H  0.52463017  0.37896178  0.76385632     0.13700
H2254       H  0.97901393  0.34997648  0.68104526    -0.00600
H2255       H  0.97718328  0.44264839  0.71971630     0.14000
H2256       H  0.92913434  0.37736279  0.76661110     0.13800
C2257       C  0.86447644  0.20833539  0.95926806     0.85600
C2258       C  0.83700854  0.21206718  0.93917595    -0.54700
C2259       C  0.81917085  0.23772542  0.94433953     0.08500
C2260       C  0.83171223  0.25886858  0.97066233     0.19400
C2261       C  0.88439822  0.23868019  0.95423382    -0.55400
C2262       C  0.86756993  0.26605424  0.96012222     0.08600
C2263       C  0.85140840  0.21173767  0.49316263    -0.54900
C2264       C  0.83417824  0.23708655  0.99958388     0.09200
H2265       H  0.83278441  0.19542352  0.92081582     0.13700
H2266       H  0.81655092  0.27933138  0.97529247    -0.00600
H2267       H  0.90983001  0.23836044  0.94905453     0.14000
H2268       H  0.85734129  0.19573579  0.51138734     0.13800
C2269       C  0.73700899  0.02827356  0.83460046     0.85600
C2270       C  0.75896059  0.02977945  0.86121964    -0.54700
C2271       C  0.75897187  0.50305884  0.87807881     0.08500
C2272       C  0.73518397  0.47734306  0.86831757     0.19400
C2273       C  0.74647580  0.49811495  0.81647943    -0.55400
C2274       C  0.74527679  0.47120991  0.83397957     0.08600
C2275       C  0.70392453  0.01872290  0.84977345    -0.54900
C2276       C  0.70208911  0.49230816  0.86718375     0.09200
H2277       H  0.77557806  0.04895997  0.86375436     0.13700
H2278       H  0.73409545  0.45630492  0.88301161    -0.00600
H2279       H  0.75405586  0.49833035  0.79203238     0.14000
H2280       H  0.68225310  0.02996369  0.84434418     0.13800
C2281       C  0.64440364  0.29517821  0.87165965    -0.02800
C2282       C  0.65541695  0.26882132  0.85426808     0.06900
C2283       C  0.66025148  0.24078698  0.87139263    -0.02900
C2284       C  0.65566540  0.24009872  0.90400046    -0.02900
C2285       C  0.64006505  0.26430110  0.92040801     0.07000
C2286       C  0.63655100  0.29282979  0.90440150    -0.03100
Br2287     Br  0.62316658  0.32947245  0.92699865    -0.01600
Br2288     Br  0.63674790  0.33379475  0.85068265    -0.01700
Br2289     Br  0.67276354  0.20618627  0.92700873    -0.01700
Br2290     Br  0.66994192  0.20063420  0.85241294    -0.01600
C2291       C  0.69910326  0.28078598  0.56139612    -0.02800
C2292       C  0.68253551  0.27598706  0.59065593     0.06900
C2293       C  0.64972568  0.26966225  0.59132607    -0.02900
C2294       C  0.63565997  0.25925832  0.56476086    -0.02900
C2295       C  0.65281975  0.26091004  0.53527589     0.07000
C2296       C  0.68372161  0.27435287  0.53363839    -0.03100
Br2297     Br  0.70453909  0.28449423  0.49367181    -0.01600
Br2298     Br  0.74170687  0.29735434  0.55918456    -0.01700
Br2299     Br  0.59100385  0.24783679  0.56984438    -0.01700
Br2300     Br  0.62280632  0.27925993  0.62816197    -0.01600
C2301       C  0.76503621  0.21456659  0.88286151    -0.02800
C2302       C  0.76457815  0.24188736  0.86513941     0.06900
C2303       C  0.77218842  0.27028920  0.87940506    -0.02900
C2304       C  0.78946559  0.27063745  0.90632252    -0.02900
C2305       C  0.79271008  0.24266603  0.92302954     0.07000
C2306       C  0.77562360  0.21603337  0.91310293    -0.03100
Br2307     Br  0.76699550  0.18109448  0.94028932    -0.01600
Br2308     Br  0.75398114  0.17478284  0.86539727    -0.01700
Br2309     Br  0.81045981  0.30871785  0.91713925    -0.01700
Br2310     Br  0.75387069  0.30774636  0.86490978    -0.01600
C2311       C  0.83476195  0.23005164  0.58742810    -0.02800
C2312       C  0.80275189  0.22461455  0.59625331     0.06900
C2313       C  0.78064460  0.22430837  0.57317180    -0.02900
C2314       C  0.79020596  0.23154105  0.54189726    -0.02900
C2315       C  0.82190919  0.23998887  0.53330615     0.07000
C2316       C  0.84419863  0.23914505  0.55666889    -0.03100
Br2317     Br  0.88832263  0.24912317  0.54645535    -0.01600
Br2318     Br  0.86556743  0.22167380  0.61716098    -0.01700
Br2319     Br  0.76023549  0.22794306  0.51055052    -0.01700
Br2320     Br  0.73753767  0.21166608  0.58451958    -0.01600
C2321       C  0.76752612  0.41533454  0.83423849    -0.02800
C2322       C  0.74976359  0.43918032  0.82032789     0.06900
C2323       C  0.73326872  0.43097721  0.79401017    -0.02900
C2324       C  0.72947740  0.39958164  0.78664286    -0.02900
C2325       C  0.75082896  0.37698672  0.79709430     0.07000
C2326       C  0.77188762  0.38630488  0.81925885    -0.03100
Br2327     Br  0.80532501  0.35936182  0.83099094    -0.01600
Br2328     Br  0.78277137  0.41790040  0.87528738    -0.01700
Br2329     Br  0.69139832  0.38967729  0.76581675    -0.01700
Br2330     Br  0.71302106  0.46073183  0.76801227    -0.01600
C2331       C  0.76462695  0.09371262  0.77378828    -0.02800
C2332       C  0.73833196  0.11378414  0.77576785     0.06900
C2333       C  0.71218961  0.10520182  0.79640599    -0.02900
C2334       C  0.71470620  0.08150031  0.81842565    -0.02900
C2335       C  0.73864300  0.05872022  0.81440786     0.07000
C2336       C  0.76451041  0.06602858  0.79213473    -0.03100
Br2337     Br  0.80223762  0.04111486  0.78817353    -0.01600
Br2338     Br  0.80130118  0.10412442  0.74650402    -0.01700
Br2339     Br  0.69207746  0.08882625  0.85833216    -0.01700
Br2340     Br  0.67135090  0.12469804  0.79465798    -0.01600
C2341       C  0.85844265  0.35960914  0.71926172    -0.02800
C2342       C  0.85302629  0.33571569  0.69809884     0.06900
C2343       C  0.87842027  0.32484963  0.67865112    -0.02900
C2344       C  0.90978398  0.33148918  0.68622712    -0.02900
C2345       C  0.91535417  0.35470303  0.70913938     0.07000
C2346       C  0.88869826  0.37217705  0.72071837    -0.03100
Br2347     Br  0.89111345  0.41482260  0.73504576    -0.01600
Br2348     Br  0.82585209  0.37325408  0.74924024    -0.01700
Br2349     Br  0.94234479  0.30597858  0.66623224    -0.01700
Br2350     Br  0.86984816  0.30027673  0.64268522    -0.01600
C2351       C  0.59401099  0.34420892  0.70702870    -0.02800
C2352       C  0.59454070  0.31124821  0.70839779     0.06900
C2353       C  0.56543682  0.29478493  0.70853073    -0.02900
C2354       C  0.53645076  0.31084838  0.71301907    -0.02900
C2355       C  0.53614751  0.34367507  0.71273389     0.07000
C2356       C  0.56512897  0.36017708  0.70817930    -0.03100
Br2357     Br  0.56547767  0.40516098  0.70461881    -0.01600
Br2358     Br  0.63281279  0.36825113  0.70282162    -0.01700
Br2359     Br  0.49792052  0.28796124  0.72382171    -0.01700
Br2360     Br  0.56490247  0.25070036  0.70152410    -0.01600
C2361       C  0.73334198  0.44393978  0.67165822    -0.02800
C2362       C  0.71624717  0.44951789  0.64508639     0.06900
C2363       C  0.70192873  0.42329958  0.63091981    -0.02900
C2364       C  0.69996577  0.39414363  0.64626770    -0.02900
C2365       C  0.71536396  0.38958422  0.67384756     0.07000
C2366       C  0.73400522  0.41393681  0.68479096    -0.03100
Br2367     Br  0.76489060  0.40461619  0.71388613    -0.01600
Br2368     Br  0.76026840  0.47576084  0.68764393    -0.01700
Br2369     Br  0.67808400  0.35939896  0.62820796    -0.01700
Br2370     Br  0.68847658  0.42426340  0.58903520    -0.01600
C2371       C  0.73026369  0.11253979  0.66648799    -0.02800
C2372       C  0.70766970  0.13320099  0.65521305     0.06900
C2373       C  0.67938859  0.12066392  0.64454888    -0.02900
C2374       C  0.67430353  0.08820768  0.64509664    -0.02900
C2375       C  0.69890600  0.06830698  0.65312636     0.07000
C2376       C  0.72246545  0.08121520  0.67047237    -0.03100
Br2377     Br  0.74551457  0.05573611  0.69746066    -0.01600
Br2378     Br  0.77462102  0.12315963  0.66898882    -0.01700
Br2379     Br  0.63210786  0.07160763  0.64091523    -0.01700
Br2380     Br  0.65008906  0.14677348  0.62454618    -0.01600
C2381       C  0.96647593  0.39407074  0.60698129    -0.02800
C2382       C  0.94639087  0.41892160  0.60135337     0.06900
C2383       C  0.93716402  0.43905813  0.62601578    -0.02900
C2384       C  0.94834767  0.43492659  0.65594366    -0.02900
C2385       C  0.97000570  0.41048114  0.66140046     0.07000
C2386       C  0.98055631  0.39178296  0.63552027    -0.03100
Br2387     Br  0.01877074  0.36739609  0.63617492    -0.01600
Br2388     Br  0.97871067  0.36636387  0.57296942    -0.01700
Br2389     Br  0.93559051  0.46606769  0.68650072    -0.01700
Br2390     Br  0.91255831  0.47529941  0.61699292    -0.01600
C2391       C  0.95917942  0.41377634  0.83806672    -0.02800
C2392       C  0.96462357  0.44583657  0.84145070     0.06900
C2393       C  0.97556339  0.46328971  0.81521781    -0.02900
C2394       C  0.98339904  0.44837729  0.78650812    -0.02900
C2395       C  0.97693023  0.41600852  0.78289077     0.07000
C2396       C  0.96821559  0.39855867  0.81022668    -0.03100
Br2397     Br  0.47210831  0.35404728  0.81289541    -0.01600
Br2398     Br  0.43590995  0.39158741  0.87213262    -0.01700
Br2399     Br  0.01247919  0.47059240  0.75779588    -0.01700
Br2400     Br  0.98009508  0.50772076  0.81850810    -0.01600
C2401       C  0.66543243  0.46995909  0.91206917    -0.02800
C2402       C  0.67074176  0.47783853  0.88010621     0.06900
C2403       C  0.64558128  0.97370588  0.86116752    -0.02900
C2404       C  0.61431787  0.46478005  0.87375309    -0.02900
C2405       C  0.60848675  0.46211123  0.90599464     0.07000
C2406       C  0.63448690  0.46233134  0.92476394    -0.03100
Br2407     Br  0.62692497  0.45205696  0.96819919    -0.01600
Br2408     Br  0.69930539  0.47168754  0.93965156    -0.01700
Br2409     Br  0.58035444  0.95807619  0.84763607    -0.01700
Br2410     Br  0.65094171  0.97923119  0.81692805    -0.01600
C2411       C  0.81508622  0.48366691  0.88052936    -0.02800
C2412       C  0.78764691  0.49703446  0.89562609     0.06900
C2413       C  0.78989063  0.50924615  0.92580357    -0.02900
C2414       C  0.81852030  0.50687317  0.94070491    -0.02900
C2415       C  0.84354787  0.48856994  0.92759619     0.07000
C2416       C  0.84126533  0.47654948  0.89746427    -0.03100
Br2417     Br  0.87549285  0.45235372  0.87818595    -0.01600
Br2418     Br  0.82014123  0.47889928  0.83597461    -0.01700
Br2419     Br  0.82560478  0.53400720  0.97501156    -0.01700
Br2420     Br  0.75592592  0.03285183  0.94528049    -0.01600
C2421       C  0.61957905  0.98450076  0.55898090    -0.02800
C2422       C  0.61772779  0.00192596  0.53089542     0.06900
C2423       C  0.64467454  0.51638423  0.51895993    -0.02900
C2424       C  0.67312575  0.01815359  0.53577949    -0.02900
C2425       C  0.67363879  0.00232926  0.56452897     0.07000
C2426       C  0.64569470  0.98758760  0.57681091    -0.03100
Br2427     Br  0.63901402  0.97854433  0.62108825    -0.01600
Br2428     Br  0.58790231  0.95463004  0.57501219    -0.01700
Br2429     Br  0.70603428  0.54588741  0.52377438    -0.01700
Br2430     Br  0.64660083  0.53863893  0.97930831    -0.01600
C2431       C  0.84209887  0.03220373  0.58357845    -0.02800
C2432       C  0.84817126  0.01533994  0.55592611     0.06900
C2433       C  0.82293470  0.99710412  0.54463732    -0.02900
C2434       C  0.79167727  0.00110649  0.55673703    -0.02900
C2435       C  0.78566686  0.01584813  0.58584053     0.07000
C2436       C  0.81207758  0.02970565  0.60001664    -0.03100
Br2437     Br  0.81014574  0.04107811  0.64345985    -0.01600
Br2438     Br  0.87594816  0.05530366  0.60127490    -0.01700
Br2439     Br  0.75815878  0.48670057  0.53033556    -0.01700
Br2440     Br  0.82958343  0.46437592  0.01403362    -0.01600
C2441       C  0.87806305  0.12254234  0.97452957    -0.02800
C2442       C  0.90178874  0.11477488  0.95163254     0.06900
C2443       C  0.90812354  0.13520160  0.92626630    -0.02900
C2444       C  0.89775479  0.16641937  0.92862819    -0.02900
C2445       C  0.87729406  0.17532211  0.95442442     0.07000
C2446       C  0.86249356  0.15047522  0.97227376    -0.03100
Br2447     Br  0.81887150  0.15087071  0.98976862    -0.01600
Br2448     Br  0.86572965  0.09571965  0.00939184    -0.01700
Br2449     Br  0.90836534  0.19490209  0.89495084    -0.01700
Br2450     Br  0.92635196  0.11948660  0.88746700    -0.01600
C2451       C  0.89708706  0.34705236  0.98778976    -0.02800
C2452       C  0.92054560  0.35603232  0.96404916     0.06900
C2453       C  0.92762802  0.33377152  0.94027262    -0.02900
C2454       C  0.90857615  0.30640162  0.93746599    -0.02900
C2455       C  0.88401879  0.29822523  0.96040274     0.07000
C2456       C  0.87818195  0.31971981  0.98527809    -0.03100
Br2457     Br  0.84438461  0.31359147  0.01719508    -0.01600
Br2458     Br  0.89428160  0.36863748  0.02754677    -0.01700
Br2459     Br  0.91465224  0.28210904  0.89976732    -0.01700
Br2460     Br  0.96647852  0.33682613  0.91456581    -0.01600
C2461       C  0.52110536  0.15973122  0.99131618    -0.02800
C2462       C  0.53669472  0.13243729  0.99972022     0.06900
C2463       C  0.56963067  0.13437356  0.00304450    -0.02900
C2464       C  0.58705655  0.16206676  0.99599216    -0.02900
C2465       C  0.57147789  0.19062106  0.99011866     0.07000
C2466       C  0.53830788  0.18814028  0.98550778    -0.03100
Br2467     Br  0.51671046  0.22039979  0.96452504    -0.01600
Br2468     Br  0.97795323  0.15706702  0.98281779    -0.01700
Br2469     Br  0.63326943  0.15683288  0.48837382    -0.01700
Br2470     Br  0.59181164  0.09832973  0.51885438    -0.01600
C2471       C  0.56537651  0.35959908  0.52525131    -0.02800
C2472       C  0.54963644  0.37117869  0.50002974     0.06900
C2473       C  0.54906424  0.35254517  0.97358654    -0.02900
C2474       C  0.55744500  0.32119152  0.97457341    -0.02900
C2475       C  0.57603876  0.31092335  0.99809090     0.07000
C2476       C  0.58190278  0.33137067  0.52202021    -0.03100
Br2477     Br  0.61582605  0.32579762  0.54828731    -0.01600
Br2478     Br  0.56588601  0.38152655  0.56404146    -0.01700
Br2479     Br  0.54702285  0.29379791  0.94086605    -0.01700
Br2480     Br  0.54397569  0.36861371  0.93194406    -0.01600
C2481       C  0.96604220  0.07878934  0.62802458    -0.02800
C2482       C  0.98175091  0.04988342  0.62048104     0.06900
C2483       C  0.50620840  0.03943694  0.64441445    -0.02900
C2484       C  0.50568864  0.05339551  0.67482558    -0.02900
C2485       C  0.98172838  0.07887546  0.68265190     0.07000
C2486       C  0.96332990  0.09069484  0.65906615    -0.03100
Br2487     Br  0.93040746  0.12052611  0.66946301    -0.01600
Br2488     Br  0.94893335  0.10513680  0.59679434    -0.01700
Br2489     Br  0.53395539  0.03648094  0.70317189    -0.01700
Br2490     Br  0.53634442  0.00668024  0.63455095    -0.01600
C2491       C  0.49508997  0.11596869  0.83154198    -0.02800
C2492       C  0.99872394  0.09313895  0.80379101     0.06900
C2493       C  0.02240187  0.06981267  0.80632728    -0.02900
C2494       C  0.03273716  0.06143832  0.83554904    -0.02900
C2495       C  0.02066443  0.07639353  0.86220625     0.07000
C2496       C  0.50476371  0.10682327  0.86082911    -0.03100
Br2497     Br  0.50319600  0.13409919  0.89661533    -0.01600
Br2498     Br  0.48047787  0.15841961  0.82913801    -0.01700
Br2499     Br  0.06612657  0.03218933  0.84001660    -0.01700
Br2500     Br  0.04575995  0.05219557  0.77115623    -0.01600
C2501       C  0.89628724  0.14918154  0.75646708    -0.02800
C2502       C  0.92538460  0.15922347  0.74052099     0.06900
C2503       C  0.92484720  0.18863305  0.72513859    -0.02900
C2504       C  0.89629525  0.20618856  0.72530908    -0.02900
C2505       C  0.86873608  0.19683668  0.74336592     0.07000
C2506       C  0.87007843  0.16930381  0.76069013    -0.03100
Br2507     Br  0.83681040  0.16054799  0.79241670    -0.01600
Br2508     Br  0.88885931  0.10602882  0.76784465    -0.01700
Br2509     Br  0.89439457  0.24338661  0.70087220    -0.01700
Br2510     Br  0.96227597  0.20577642  0.70346522    -0.01600
C2511       C  0.57729423  0.19657036  0.75586127    -0.02800
C2512       C  0.60304184  0.17847712  0.74468729     0.06900
C2513       C  0.59801328  0.15435920  0.72339624    -0.02900
C2514       C  0.56794632  0.14933768  0.71211210    -0.02900
C2515       C  0.54132577  0.16472231  0.72589901     0.07000
C2516       C  0.54658765  0.18955341  0.74688851    -0.03100
Br2517     Br  0.51119789  0.21117709  0.76689929    -0.01600
Br2518     Br  0.58462171  0.23188287  0.78244356    -0.01700
Br2519     Br  0.56247610  0.11901569  0.68000340    -0.01700
Br2520     Br  0.63291175  0.12798497  0.71046264    -0.01600
C2521       C  0.98916403  0.60477005  0.27131111     0.85600
C2522       C  0.95902158  0.62399491  0.26995971    -0.54700
C2523       C  0.95489355  0.63898711  0.24240655     0.08500
C2524       C  0.48391593  0.63395901  0.21885388     0.19400
C2525       C  0.98645721  0.58191759  0.24316139    -0.55400
C2526       C  0.98420899  0.59599127  0.21427815     0.08600
C2527       C  0.51758604  0.62913750  0.26199177    -0.54900
C2528       C  0.51440602  0.64377938  0.23503245     0.09200
H2529       H  0.94185816  0.62525576  0.28971570     0.15700
H2530       H  0.48226005  0.64578769  0.19628055    -0.00600
H2531       H  0.98491025  0.55694093  0.24642713     0.14000
H2532       H  0.53812562  0.63316642  0.27556234     0.13800
O2533       O  0.53417430  0.55435612  0.41085872    -0.81100
O2534       O  0.88045079  0.97272778  0.46508466    -0.82600
O2535       O  0.95459928  0.98379487  0.38134443    -0.79600
O2536       O  0.92384449  0.56599234  0.43461852    -0.78000
O2537       O  0.92897348  0.58341172  0.48421905    -0.79800
O2538       O  0.98360458  0.94109656  0.39202253    -0.80700
O2539       O  0.89638096  0.00445929  0.42422113    -0.82100
O2540       O  0.98350723  0.54881129  0.39394428    -0.82400
Eu2541     Eu  0.95176279  0.51593762  0.42929372     2.39200
O2542       O  0.92883946  0.51445575  0.48060097    -0.89900
O2543       O  0.00282469  0.99593263  0.42767386    -0.93500
C2544       C  0.01218682  0.55893269  0.39087231     1.01200
C2545       C  0.87536711  0.98839311  0.44012627     1.01000
C2546       C  0.96781167  0.95763781  0.37370320     1.01000
C2547       C  0.91887493  0.58586782  0.45686950     0.98800
H2548       H  0.93365826  0.95147936  0.43364707     0.28600
O2549       O  0.94663608  0.96377378  0.44674618    -1.02200
H2550       H  0.98320643  0.56742073  0.45407554     0.28600
O2551       O  0.98207215  0.54632641  0.46196617    -1.04800
O2552       O  0.92960337  0.93682688  0.05116676    -0.82000
O2553       O  0.58152543  0.51926250  0.49157896    -0.81600
O2554       O  0.96322276  0.89520825  0.45030450    -0.80000
O2555       O  0.90050741  0.53677517  0.03605484    -0.83300
O2556       O  0.99426616  0.59341183  0.01068083    -0.81200
O2557       O  0.55463475  0.94734675  0.42184993    -0.79800
O2558       O  0.53313995  0.92298839  0.02318249    -0.81400
O2559       O  0.50035703  0.51093142  0.08032257    -0.83300
O2560       O  0.51910257  0.90548401  0.47581917    -0.80000
O2561       O  0.96697755  0.54982288  0.06808280    -0.82700
O2562       O  0.91963815  0.90843248  0.48080557    -0.78400
O2563       O  0.57389621  0.99659819  0.43029524    -0.78500
O2564       O  0.53823332  0.58040968  0.47838943    -0.78100
O2565       O  0.88768726  0.98567363  0.03302515    -0.81600
O2566       O  0.97982763  0.94412898  0.06698489    -0.81000
O2567       O  0.56193447  0.99089486  0.03229033    -0.79400
Eu2568     Eu  0.92654176  0.96318260  0.99882136     2.39800
Eu2569     Eu  0.53388110  0.52635218  0.46100738     2.39600
Eu2570     Eu  0.99787089  0.94433789  0.44575567     2.38400
Eu2571     Eu  0.95756438  0.54617218  0.01305604     2.39900
Eu2572     Eu  0.50740205  0.97615958  0.03098657     2.39800
O2573       O  0.51019856  0.52782729  0.01304854    -0.93800
O2574       O  0.97737222  0.94388027  0.49797954    -0.92700
C2575       C  0.95148006  0.93361677  0.07075083     1.01400
C2576       C  0.58498662  0.50545420  0.01769178     1.00100
C2577       C  0.93608991  0.88815634  0.46496907     0.99500
C2578       C  0.88112130  0.51300627  0.04117690     1.01500
C2579       C  0.52217914  0.59999008  0.49564750     1.00400
C2580       C  0.57684357  0.96863019  0.41976229     0.99300
C2581       C  0.53280700  0.90252093  0.00078001     0.99300
C2582       C  0.98369743  0.53552861  0.08719737     1.02000
H2583       H  0.55057769  0.96580373  0.47882209     0.29300
O2584       O  0.52985162  0.97494258  0.47873528    -1.05900
H2585       H  0.94703325  0.99500065  0.05180277     0.31400
O2586       O  0.95660692  0.99505128  0.03084836    -1.08500
C2587       C  0.70794162  0.53955229  0.13282369     0.85600
C2588       C  0.68961875  0.53591601  0.10402343    -0.54700
C2589       C  0.69688750  0.51069818  0.08656706     0.08500
C2590       C  0.72507025  0.99199024  0.09846474     0.19400
C2591       C  0.70523805  0.50786809  0.14984256    -0.55400
C2592       C  0.71520351  0.98267430  0.13232773     0.08600
C2593       C  0.74213208  0.54160485  0.11841321    -0.54900
C2594       C  0.75218244  0.51657945  0.10099923     0.09200
H2595       H  0.67199599  0.55186827  0.09683013     0.13700
H2596       H  0.73203904  0.97147677  0.08445833    -0.00600
H2597       H  0.69677966  0.50570780  0.17411260     0.14000
H2598       H  0.75640573  0.56259585  0.12001188     0.13800
O2599       O  0.65322497  0.69384732  0.26479495    -0.81100
O2600       O  0.72309276  0.78822846  0.12785906    -0.82600
O2601       O  0.63472566  0.77147752  0.19683583    -0.79600
O2602       O  0.68647014  0.68346080  0.16931767    -0.78000
O2603       O  0.73924989  0.67669699  0.16209158    -0.79800
O2604       O  0.64235834  0.80817122  0.23406682    -0.80700
O2605       O  0.68331198  0.75303117  0.13888971    -0.82100
O2606       O  0.64031402  0.70633966  0.21559025    -0.82400
Eu2607     Eu  0.68195059  0.73630189  0.19231334     2.39200
O2608       O  0.73501113  0.73602488  0.17430207    -0.89900
O2609       O  0.67607638  0.75211413  0.24446496    -0.93500
C2610       C  0.63460618  0.69342291  0.24196662     1.01200
C2611       C  0.69801050  0.77291548  0.12076463     1.01000
C2612       C  0.62585050  0.79559028  0.21329868     1.01000
C2613       C  0.71086936  0.66667297  0.16147266     0.98800
H2614       H  0.68877267  0.80045195  0.18288618     0.28600
O2615       O  0.70116967  0.78711033  0.19534392    -1.02200
H2616       H  0.70211270  0.68121284  0.22232913     0.28600
O2617       O  0.71088040  0.70207167  0.22252733    -1.04800
O2618       O  0.80513661  0.81452970  0.18015022    -0.82000
O2619       O  0.73369210  0.72580723  0.32304136    -0.81600
O2620       O  0.70492650  0.84973770  0.21263820    -0.80000
O2621       O  0.78972170  0.70698960  0.14954509    -0.83300
O2622       O  0.75403043  0.65261875  0.23506977    -0.81200
O2623       O  0.67338987  0.79469778  0.30417008    -0.79800
O2624       O  0.77272477  0.82584456  0.27980497    -0.81400
O2625       O  0.82876606  0.73594289  0.25438848    -0.83300
O2626       O  0.71977278  0.83439128  0.28527133    -0.80000
O2627       O  0.81871189  0.69612110  0.22074951    -0.82700
O2628       O  0.73788769  0.83993140  0.16952891    -0.78400
O2629       O  0.66479705  0.74307440  0.30688030    -0.78500
O2630       O  0.72332187  0.66593005  0.27847772    -0.78100
O2631       O  0.78107623  0.75703163  0.13408941    -0.81600
O2632       O  0.81987742  0.80407098  0.22924625    -0.81000
O2633       O  0.77775157  0.75684680  0.31328514    -0.79400
Eu2634     Eu  0.75430521  0.78689578  0.17530328     2.39800
Eu2635     Eu  0.70600430  0.71909203  0.27397561     2.39600
Eu2636     Eu  0.69655760  0.80257805  0.24797053     2.38400
Eu2637     Eu  0.76468565  0.70237401  0.20382685     2.39900
Eu2638     Eu  0.78103165  0.77134838  0.25775126     2.39800
O2639       O  0.75996946  0.72028853  0.25554843    -0.93800
O2640       O  0.75005975  0.80361884  0.22771930    -0.92700
C2641       C  0.82401438  0.81701805  0.20236741     1.01400
C2642       C  0.75831459  0.74089794  0.33173058     1.00100
C2643       C  0.71966255  0.85777942  0.18629785     0.99500
C2644       C  0.79066694  0.72915643  0.12899955     1.01500
C2645       C  0.73880993  0.64583919  0.26158797     1.00400
C2646       C  0.66499909  0.76965334  0.31990606     0.99300
C2647       C  0.74828279  0.84315126  0.28740987     0.99300
C2648       C  0.83667651  0.71053470  0.23930276     1.02000
H2649       H  0.72657766  0.77690932  0.29693021     0.29300
O2650       O  0.72755476  0.76945135  0.27587212    -1.05900
H2651       H  0.80709278  0.75388605  0.19685017     0.31400
O2652       O  0.78505879  0.75383813  0.20537033    -1.08500
C2653       C  0.59179900  0.72174718  0.48743387     0.85600
C2654       C  0.61888781  0.72431909  0.00931454    -0.54700
C2655       C  0.63596235  0.75156296  0.00788526     0.08500
C2656       C  0.62555764  0.77392799  0.48359150     0.19400
C2657       C  0.57340808  0.75155811  0.49766889    -0.55400
C2658       C  0.59080366  0.77876002  0.49502697     0.08600
C2659       C  0.60618046  0.72941424  0.45473655    -0.54900
C2660       C  0.62428686  0.75626751  0.45210548     0.09200
H2661       H  0.62147644  0.70791467  0.02809749     0.13700
H2662       H  0.63966537  0.79583167  0.48205516    -0.00600
H2663       H  0.54891704  0.75156528  0.50677217     0.14000
H2664       H  0.60259688  0.71427467  0.43502954     0.13800
C2665       C  0.97756023  0.89805047  0.25157041     0.85600
C2666       C  0.00611818  0.87750324  0.24717489    -0.54700
C2667       C  0.00680252  0.85974703  0.22123120     0.08500
C2668       C  0.97784161  0.86442595  0.20138418     0.19400
C2669       C  0.97716059  0.91701340  0.22061417    -0.55400
C2670       C  0.97684275  0.89929787  0.19388123     0.08600
C2671       C  0.94897953  0.87564405  0.24971111    -0.54900
C2672       C  0.94738218  0.85985271  0.22231032     0.09200
H2673       H  0.52542995  0.87906308  0.26292423     0.13700
H2674       H  0.97886821  0.84919785  0.18134003    -0.00600
H2675       H  0.97519784  0.94169912  0.22020442     0.14000
H2676       H  0.92942377  0.87546389  0.26738732     0.13800
C2677       C  0.86368042  0.70779719  0.45978202     0.85600
C2678       C  0.83633890  0.71197322  0.43960690    -0.54700
C2679       C  0.81886833  0.73791294  0.44467233     0.08500
C2680       C  0.83176484  0.75891482  0.47095127     0.19400
C2681       C  0.88411888  0.73786292  0.45476278    -0.55400
C2682       C  0.86776485  0.76554923  0.46048429     0.08600
C2683       C  0.85286926  0.71249681  0.99372400    -0.54900
C2684       C  0.83387310  0.73714223  0.49997450     0.09200
H2685       H  0.83183565  0.69530355  0.42135003     0.13700
H2686       H  0.81690615  0.77959850  0.47545301    -0.00600
H2687       H  0.90956629  0.73711192  0.44983948     0.14000
H2688       H  0.85929117  0.69659808  0.01184477     0.13800
C2689       C  0.73632226  0.52774184  0.33374177     0.85600
C2690       C  0.75825424  0.52923414  0.36040317    -0.54700
C2691       C  0.75935971  0.00274875  0.37752923     0.08500
C2692       C  0.73572376  0.97688516  0.36783126     0.19400
C2693       C  0.74688398  0.99754218  0.31592535    -0.55400
C2694       C  0.74588189  0.97069038  0.33354784     0.08600
C2695       C  0.70327799  0.51793439  0.34876494    -0.54900
C2696       C  0.70255299  0.99165477  0.36661646     0.09200
H2697       H  0.77472588  0.54850899  0.36307852     0.13700
H2698       H  0.73477816  0.95585872  0.38252120    -0.00600
H2699       H  0.75433551  0.99768701  0.29143897     0.14000
H2700       H  0.68153170  0.52896959  0.34326793     0.13800
C2701       C  0.64639481  0.79566915  0.37248999    -0.02800
C2702       C  0.65698968  0.76918073  0.35500882     0.06900
C2703       C  0.66178702  0.74113939  0.37218864    -0.02900
C2704       C  0.65734911  0.74053546  0.40478482    -0.02900
C2705       C  0.64155006  0.76462163  0.42109519     0.07000
C2706       C  0.63833861  0.79324513  0.40520287    -0.03100
Br2707     Br  0.62547155  0.82991030  0.42802455    -0.01600
Br2708     Br  0.63998125  0.83472494  0.35183028    -0.01700
Br2709     Br  0.67470855  0.70687721  0.42796243    -0.01700
Br2710     Br  0.67102187  0.70079105  0.35346154    -0.01600
C2711       C  0.69936386  0.78082129  0.06128171    -0.02800
C2712       C  0.68280157  0.77732122  0.09073100     0.06900
C2713       C  0.64977012  0.77240003  0.09174224    -0.02900
C2714       C  0.63514957  0.76181761  0.06555985    -0.02900
C2715       C  0.65224774  0.76193379  0.03604255     0.07000
C2716       C  0.68359466  0.77416135  0.03382066    -0.03100
Br2717     Br  0.70438637  0.78210557  0.99334259    -0.01600
Br2718     Br  0.74242954  0.79605291  0.05839360    -0.01700
Br2719     Br  0.59029646  0.75160486  0.07106852    -0.01700
Br2720     Br  0.62368624  0.78359520  0.12858687    -0.01600
C2721       C  0.76488635  0.71438210  0.38343485    -0.02800
C2722       C  0.76454016  0.74151072  0.36537536     0.06900
C2723       C  0.77164555  0.77007882  0.37960247    -0.02900
C2724       C  0.78876106  0.77076709  0.40666853    -0.02900
C2725       C  0.79216056  0.74291753  0.42356560     0.07000
C2726       C  0.77501218  0.71625502  0.41385106    -0.03100
Br2727     Br  0.76590230  0.68181074  0.44156272    -0.01600
Br2728     Br  0.75452241  0.67431292  0.36626003    -0.01700
Br2729     Br  0.80919372  0.80911249  0.41752040    -0.01700
Br2730     Br  0.75263820  0.80711702  0.36492703    -0.01600
C2731       C  0.83450048  0.72948365  0.08801525    -0.02800
C2732       C  0.80247525  0.72377889  0.09639659     0.06900
C2733       C  0.78060525  0.72347414  0.07310517    -0.02900
C2734       C  0.79050038  0.73093036  0.04196975    -0.02900
C2735       C  0.82222453  0.73969864  0.03386207     0.07000
C2736       C  0.84421685  0.73891085  0.05747684    -0.03100
Br2737     Br  0.88830601  0.74951813  0.04797282    -0.01600
Br2738     Br  0.86492315  0.72140534  0.11822335    -0.01700
Br2739     Br  0.76099522  0.72732578  0.01018527    -0.01700
Br2740     Br  0.73738459  0.71082863  0.08402025    -0.01600
C2741       C  0.76823784  0.91484505  0.33420634    -0.02800
C2742       C  0.75040959  0.93856330  0.32014238     0.06900
C2743       C  0.73355327  0.93003623  0.29417849    -0.02900
C2744       C  0.72961111  0.89855750  0.28726353    -0.02900
C2745       C  0.75116097  0.87612859  0.29763493     0.07000
C2746       C  0.77234947  0.88559252  0.31960107    -0.03100
Br2747     Br  0.80531742  0.85832180  0.33183088    -0.01600
Br2748     Br  0.78380924  0.91788069  0.37507726    -0.01700
Br2749     Br  0.69119675  0.88832493  0.26709730    -0.01700
Br2750     Br  0.71310965  0.95950484  0.26807214    -0.01600
C2751       C  0.76419235  0.59331218  0.27341017    -0.02800
C2752       C  0.73787890  0.61334822  0.27516827     0.06900
C2753       C  0.71151024  0.60471812  0.29548723    -0.02900
C2754       C  0.71372239  0.58087021  0.31742203    -0.02900
C2755       C  0.73787293  0.55824546  0.31369980     0.07000
C2756       C  0.76398891  0.56569920  0.29181021    -0.03100
Br2757     Br  0.80195102  0.54108630  0.28859525    -0.01600
Br2758     Br  0.80100304  0.60360446  0.24630062    -0.01700
Br2759     Br  0.69021326  0.58783387  0.35695603    -0.01700
Br2760     Br  0.67085872  0.62456262  0.29350160    -0.01600
C2761       C  0.85848941  0.85951172  0.21910473    -0.02800
C2762       C  0.85314642  0.83563007  0.19790696     0.06900
C2763       C  0.87858042  0.82453415  0.17869406    -0.02900
C2764       C  0.90986815  0.83094690  0.18648869    -0.02900
C2765       C  0.91541063  0.85394868  0.20958893     0.07000
C2766       C  0.88885584  0.87166597  0.22112558    -0.03100
Br2767     Br  0.89156093  0.91379181  0.23700909    -0.01600
Br2768     Br  0.82557554  0.87327307  0.24870997    -0.01700
Br2769     Br  0.94237450  0.80522717  0.16664189    -0.01700
Br2770     Br  0.87015919  0.79929468  0.14314848    -0.01600
C2771       C  0.59484277  0.84439929  0.20667567    -0.02800
C2772       C  0.59532476  0.81145287  0.20807411     0.06900
C2773       C  0.56628081  0.79495631  0.20768334    -0.02900
C2774       C  0.53726734  0.81098198  0.21177053    -0.02900
C2775       C  0.53695349  0.84380282  0.21181205     0.07000
C2776       C  0.56596141  0.86035762  0.20765344    -0.03100
Br2777     Br  0.56635315  0.90535539  0.20438706    -0.01600
Br2778     Br  0.63373259  0.86834838  0.20244107    -0.01700
Br2779     Br  0.49863637  0.78795544  0.22162027    -0.01700
Br2780     Br  0.56582603  0.75084053  0.20066617    -0.01600
C2781       C  0.73364838  0.94439251  0.17191122    -0.02800
C2782       C  0.71682505  0.94986732  0.14512655     0.06900
C2783       C  0.70276776  0.92359095  0.13084714    -0.02900
C2784       C  0.70123568  0.89428910  0.14596689    -0.02900
C2785       C  0.71633516  0.88977439  0.17375761     0.07000
C2786       C  0.73428835  0.91441726  0.18516630    -0.03100
Br2787     Br  0.76406526  0.90570144  0.21547623    -0.01600
Br2788     Br  0.76018624  0.97641127  0.18816869    -0.01700
Br2789     Br  0.67988089  0.85945391  0.12754617    -0.01700
Br2790     Br  0.68845220  0.92497056  0.08930190    -0.01600
C2791       C  0.72978138  0.61225154  0.16646350    -0.02800
C2792       C  0.70704453  0.63293002  0.15544752     0.06900
C2793       C  0.67868480  0.62033102  0.14493307    -0.02900
C2794       C  0.67384923  0.58781787  0.14505339    -0.02900
C2795       C  0.69859224  0.56797376  0.15281514     0.07000
C2796       C  0.72214947  0.58086595  0.17017171    -0.03100
Br2797     Br  0.74507884  0.55542333  0.19726576    -0.01600
Br2798     Br  0.77405686  0.62302132  0.16937231    -0.01700
Br2799     Br  0.63176296  0.57096409  0.14081259    -0.01700
Br2800     Br  0.64860352  0.64649751  0.12609071    -0.01600
C2801       C  0.96485592  0.89365373  0.10722790    -0.02800
C2802       C  0.94554654  0.91901849  0.10149100     0.06900
C2803       C  0.93626844  0.93899452  0.12625039    -0.02900
C2804       C  0.94704415  0.93440994  0.15631001    -0.02900
C2805       C  0.96855239  0.90976328  0.16172791     0.07000
C2806       C  0.97893546  0.89113206  0.13574423    -0.03100
Br2807     Br  0.01733387  0.86704381  0.13599591    -0.01600
Br2808     Br  0.97557681  0.86510433  0.07357356    -0.01700
Br2809     Br  0.93393181  0.96526818  0.18702014    -0.01700
Br2810     Br  0.91170734  0.97527148  0.11731739    -0.01600
C2811       C  0.96017076  0.91289919  0.33852062    -0.02800
C2812       C  0.96572575  0.94495371  0.34180930     0.06900
C2813       C  0.97633212  0.96240573  0.31544711    -0.02900
C2814       C  0.98341261  0.94754926  0.28656375    -0.02900
C2815       C  0.97682958  0.91516833  0.28308524     0.07000
C2816       C  0.96867719  0.89769968  0.31054653    -0.03100
Br2817     Br  0.47339778  0.85351653  0.31227242    -0.01600
Br2818     Br  0.43801133  0.89070047  0.37207503    -0.01700
Br2819     Br  0.01121361  0.97013783  0.25688102    -0.01700
Br2820     Br  0.98152574  0.00675727  0.31879423    -0.01600
C2821       C  0.66590480  0.96860253  0.41117335    -0.02800
C2822       C  0.67120762  0.97708901  0.37934523     0.06900
C2823       C  0.64509569  0.47263363  0.36013361    -0.02900
C2824       C  0.61463084  0.96495565  0.37289741    -0.02900
C2825       C  0.60888175  0.96175233  0.40507783     0.07000
C2826       C  0.63489100  0.96113073  0.42378471    -0.03100
Br2827     Br  0.62719352  0.94982736  0.46696966    -0.01600
Br2828     Br  0.69984706  0.96919534  0.43873690    -0.01700
Br2829     Br  0.57988737  0.45629661  0.34698906    -0.01700
Br2830     Br  0.65004140  0.47849042  0.31591541    -0.01600
C2831       C  0.81563771  0.98381466  0.37978888    -0.02800
C2832       C  0.78808880  0.99684811  0.39500079     0.06900
C2833       C  0.79015096  0.00867769  0.42533190    -0.02900
C2834       C  0.81865221  0.00601429  0.44038357    -0.02900
C2835       C  0.84379753  0.98795806  0.42713828     0.07000
C2836       C  0.84182095  0.97660149  0.39668615    -0.03100
Br2837     Br  0.87639898  0.95311368  0.37696763    -0.01600
Br2838     Br  0.82061843  0.97927868  0.33521459    -0.01700
Br2839     Br  0.82543664  0.03249910  0.47518428    -0.01700
Br2840     Br  0.75538530  0.53303871  0.44380178    -0.01600
C2841       C  0.61842867  0.48508111  0.05975383    -0.02800
C2842       C  0.61662776  0.50251710  0.03160495     0.06900
C2843       C  0.64442383  0.01738409  0.01948237    -0.02900
C2844       C  0.67233515  0.51797608  0.03590300    -0.02900
C2845       C  0.67302625  0.50190092  0.06447790     0.07000
C2846       C  0.64499942  0.48748670  0.07708583    -0.03100
Br2847     Br  0.63897155  0.47819245  0.12137875    -0.01600
Br2848     Br  0.58561465  0.45692641  0.07723032    -0.01700
Br2849     Br  0.70574437  0.04701297  0.02413533    -0.01700
Br2850     Br  0.64825499  0.03650783  0.47794728    -0.01600
C2851       C  0.84172527  0.53291587  0.08320347    -0.02800
C2852       C  0.84806284  0.51610524  0.05554834     0.06900
C2853       C  0.82295277  0.49768545  0.04416296    -0.02900
C2854       C  0.79162201  0.50110165  0.05640496    -0.02900
C2855       C  0.78541850  0.51573867  0.08553007     0.07000
C2856       C  0.81169269  0.53001780  0.09963529    -0.03100
Br2857     Br  0.80964754  0.54137383  0.14308167    -0.01600
Br2858     Br  0.87528603  0.55654007  0.10091417    -0.01700
Br2859     Br  0.75826508  0.98773834  0.03031916    -0.01700
Br2860     Br  0.82928250  0.96336710  0.51490394    -0.01600
C2861       C  0.87629656  0.62164675  0.47506441    -0.02800
C2862       C  0.89984899  0.61366432  0.45206826     0.06900
C2863       C  0.90632732  0.63408824  0.42676473    -0.02900
C2864       C  0.89653037  0.66545907  0.42930259    -0.02900
C2865       C  0.87602368  0.67454192  0.45500990     0.07000
C2866       C  0.86100222  0.64979437  0.47291228    -0.03100
Br2867     Br  0.81754925  0.65063811  0.49084263    -0.01600
Br2868     Br  0.86410321  0.59495849  0.51006764    -0.01700
Br2869     Br  0.90856941  0.69408922  0.39614533    -0.01700
Br2870     Br  0.92403176  0.61820540  0.38782312    -0.01600
C2871       C  0.89769411  0.84650823  0.48810353    -0.02800
C2872       C  0.92142185  0.85524074  0.46456796     0.06900
C2873       C  0.92898299  0.83270714  0.44119090    -0.02900
C2874       C  0.90987889  0.80534160  0.43833301    -0.02900
C2875       C  0.88476729  0.79751027  0.46089803     0.07000
C2876       C  0.87873244  0.81923796  0.48556500    -0.03100
Br2877     Br  0.84460798  0.81363087  0.51723717    -0.01600
Br2878     Br  0.89449619  0.86847853  0.52767529    -0.01700
Br2879     Br  0.91660483  0.78078314  0.40091001    -0.01700
Br2880     Br  0.96840194  0.83566689  0.41616710    -0.01600
C2881       C  0.52229670  0.65908684  0.48910305    -0.02800
C2882       C  0.53757593  0.63175763  0.49789979     0.06900
C2883       C  0.57039993  0.63358667  0.50185129    -0.02900
C2884       C  0.58802763  0.66126137  0.49518104    -0.02900
C2885       C  0.57265247  0.68993260  0.48931162     0.07000
C2886       C  0.53960529  0.68755618  0.48402074    -0.03100
Br2887     Br  0.51820660  0.72039876  0.46365514    -0.01600
Br2888     Br  0.97749380  0.65718612  0.48106891    -0.01700
Br2889     Br  0.63290169  0.65761304  0.99101076    -0.01700
Br2890     Br  0.59122704  0.59842879  0.01937537    -0.01600
C2891       C  0.56463642  0.86003147  0.02572434    -0.02800
C2892       C  0.54836005  0.87124103  0.00070097     0.06900
C2893       C  0.55098449  0.85214718  0.47233474    -0.02900
C2894       C  0.55900480  0.82068929  0.47358952    -0.02900
C2895       C  0.57618162  0.81008736  0.49807094     0.07000
C2896       C  0.58167354  0.83217303  0.02224515    -0.03100
Br2897     Br  0.61785850  0.82861898  0.04606505    -0.01600
Br2898     Br  0.56549594  0.88212322  0.06443022    -0.01700
Br2899     Br  0.54954726  0.79349399  0.43945738    -0.01700
Br2900     Br  0.54766075  0.86882095  0.43067091    -0.01600
C2901       C  0.96887843  0.57927196  0.12750247    -0.02800
C2902       C  0.98326165  0.54971203  0.12039436     0.06900
C2903       C  0.50330713  0.53854684  0.14537240    -0.02900
C2904       C  0.50381960  0.55315042  0.17536916    -0.02900
C2905       C  0.98237803  0.57835823  0.18269868     0.07000
C2906       C  0.96506977  0.59075376  0.15857235    -0.03100
Br2907     Br  0.93179499  0.62046897  0.16788073    -0.01600
Br2908     Br  0.95610612  0.60741440  0.09560043    -0.01700
Br2909     Br  0.53257844  0.53628368  0.20319474    -0.01700
Br2910     Br  0.52873877  0.50175625  0.13750781    -0.01600
C2911       C  0.49586361  0.61602718  0.33163789    -0.02800
C2912       C  0.99764329  0.59360514  0.30399099     0.06900
C2913       C  0.02179831  0.57082347  0.30666548    -0.02900
C2914       C  0.03173640  0.56237641  0.33599740    -0.02900
C2915       C  0.01929665  0.57723016  0.36261085     0.07000
C2916       C  0.50553619  0.60656509  0.36081334    -0.03100
Br2917     Br  0.50433593  0.63354472  0.39680205    -0.01600
Br2918     Br  0.48193041  0.65873041  0.32952241    -0.01700
Br2919     Br  0.06464288  0.53264960  0.34061429    -0.01700
Br2920     Br  0.04635227  0.55436223  0.27150249    -0.01600
C2921       C  0.89547973  0.64754011  0.25482381    -0.02800
C2922       C  0.92459988  0.65795208  0.23925756     0.06900
C2923       C  0.92423476  0.68764902  0.22449984    -0.02900
C2924       C  0.89587713  0.70544806  0.22530936    -0.02900
C2925       C  0.86831081  0.69571619  0.24306705     0.07000
C2926       C  0.86943747  0.66770828  0.25962533    -0.03100
Br2927     Br  0.83675376  0.65890278  0.29188986    -0.01600
Br2928     Br  0.88810129  0.60413737  0.26528212    -0.01700
Br2929     Br  0.89442194  0.74383472  0.20271937    -0.01700
Br2930     Br  0.96160117  0.70480361  0.20274896    -0.01600
C2931       C  0.57752222  0.69659658  0.25534866    -0.02800
C2932       C  0.60330946  0.67855913  0.24423753     0.06900
C2933       C  0.59837774  0.65417975  0.22324013    -0.02900
C2934       C  0.56827910  0.64875418  0.21219212    -0.02900
C2935       C  0.54164952  0.66438311  0.22570621     0.07000
C2936       C  0.54684795  0.68945258  0.24640638    -0.03100
Br2937     Br  0.51136284  0.71093304  0.26642928    -0.01600
Br2938     Br  0.58473593  0.73170794  0.28220065    -0.01700
Br2939     Br  0.56273478  0.61714473  0.18132412    -0.01700
Br2940     Br  0.63335027  0.62768690  0.21087033    -0.01600
C2941       C  0.99140580  0.60589711  0.77206389     0.85600
C2942       C  0.96063948  0.62430693  0.77106203    -0.54700
C2943       C  0.95573492  0.63924704  0.74364929     0.08500
C2944       C  0.48431345  0.63363039  0.71863258     0.19400
C2945       C  0.98931124  0.58292449  0.74396229    -0.55400
C2946       C  0.98639221  0.59682152  0.71513525     0.08600
C2947       C  0.51748961  0.62876974  0.76213320    -0.54900
C2948       C  0.51466143  0.64342480  0.73514743     0.09200
H2949       H  0.94397147  0.62553111  0.79118427     0.15700
H2950       H  0.48283571  0.64556216  0.69608297    -0.00600
H2951       H  0.98894187  0.55791846  0.74719112     0.14000
H2952       H  0.53785435  0.63279091  0.77595205     0.13800
O2953       O  0.53365696  0.55462141  0.91116720    -0.81100
O2954       O  0.88134799  0.97418286  0.96520426    -0.82600
O2955       O  0.95490250  0.98286390  0.88201206    -0.79600
O2956       O  0.92434606  0.56696215  0.93422428    -0.78000
O2957       O  0.93039595  0.58417123  0.98371506    -0.79800
O2958       O  0.98350634  0.93996461  0.89298722    -0.80700
O2959       O  0.89709726  0.00616136  0.92452115    -0.82100
O2960       O  0.98443123  0.54860519  0.89404447    -0.82400
Eu2961     Eu  0.95133342  0.51659503  0.92935516     2.39200
O2962       O  0.92819719  0.51461903  0.98061051    -0.89900
O2963       O  0.00348291  0.99588308  0.92782137    -0.93500
C2964       C  0.01309399  0.55890238  0.89131157     1.01200
C2965       C  0.87613476  0.99009247  0.94047660     1.01000
C2966       C  0.96769065  0.95639569  0.87463502     1.01000
C2967       C  0.92022709  0.58695912  0.95643700     0.98800
H2968       H  0.93408136  0.95203465  0.93390765     0.28600
O2969       O  0.94724948  0.96432561  0.94682499    -1.02200
H2970       H  0.98325264  0.56776723  0.95421671     0.28600
O2971       O  0.98191551  0.54664282  0.96203132    -1.04800
O2972       O  0.92948245  0.93608437  0.55171915    -0.82000
O2973       O  0.58150125  0.51954569  0.99165022    -0.81600
O2974       O  0.96315098  0.89568697  0.95095837    -0.80000
O2975       O  0.90058437  0.53680963  0.53645252    -0.83300
O2976       O  0.99419918  0.59353966  0.50975240    -0.81200
O2977       O  0.55422902  0.94822789  0.92216320    -0.79800
O2978       O  0.53544097  0.92315485  0.52164388    -0.81400
O2979       O  0.50040874  0.51002539  0.57990701    -0.83300
O2980       O  0.51953677  0.90714489  0.97589344    -0.80000
O2981       O  0.97046336  0.55122360  0.56770459    -0.82700
O2982       O  0.91980235  0.90940633  0.98151473    -0.78400
O2983       O  0.57362974  0.99721068  0.93160085    -0.78500
O2984       O  0.53829397  0.58077042  0.97947328    -0.78100
O2985       O  0.88782952  0.98421472  0.53421899    -0.81600
O2986       O  0.97957047  0.94439693  0.56741680    -0.81000
O2987       O  0.56291497  0.99211331  0.53307986    -0.79400
Eu2988     Eu  0.92585289  0.96201919  0.49879574     2.39800
Eu2989     Eu  0.53366649  0.52690390  0.96155072     2.39600
Eu2990     Eu  0.99828886  0.94435819  0.94635917     2.38400
Eu2991     Eu  0.95774423  0.54629482  0.51319137     2.39900
Eu2992     Eu  0.50873134  0.97585185  0.53052329     2.39800
O2993       O  0.51036862  0.52728755  0.51252345    -0.93800
O2994       O  0.97791727  0.94497289  0.99843493    -0.92700
C2995       C  0.95145933  0.93355569  0.57139163     1.01400
C2996       C  0.58498011  0.50443357  0.51723757     1.00100
C2997       C  0.93602743  0.88891681  0.96574949     0.99500
C2998       C  0.88091422  0.51312399  0.54098212     1.01500
C2999       C  0.52211474  0.60027593  0.99671535     1.00400
C3000       C  0.57660691  0.96939073  0.92065261     0.99300
C3001       C  0.53414078  0.90201123  0.49992365     0.99300
C3002       C  0.98641107  0.53657232  0.58728261     1.02000
H3003       H  0.54944076  0.96642292  0.97937505     0.29300
O3004       O  0.52876469  0.97566443  0.97925281    -1.05900
H3005       H  0.94623744  0.99409223  0.55137593     0.31400
O3006       O  0.95581600  0.99419981  0.53042873    -1.08500
C3007       C  0.70793162  0.53924628  0.63292487     0.85600
C3008       C  0.68928893  0.53538245  0.60435276    -0.54700
C3009       C  0.69647386  0.51013599  0.58691894     0.08500
C3010       C  0.72548440  0.99218800  0.59853764     0.19400
C3011       C  0.70551470  0.50758482  0.65011071    -0.55400
C3012       C  0.71519565  0.98299122  0.63230419     0.08600
C3013       C  0.74204742  0.54124639  0.61824896    -0.54900
C3014       C  0.75191981  0.51615908  0.60083305     0.09200
H3015       H  0.67158785  0.55124724  0.59720401     0.13700
H3016       H  0.73255132  0.97158835  0.58470557    -0.00600
H3017       H  0.69736319  0.50546659  0.67446566     0.14000
H3018       H  0.75658147  0.56206097  0.61998628     0.13800
O3019       O  0.65374524  0.69356764  0.76567948    -0.81100
O3020       O  0.72257483  0.78830893  0.62844196    -0.82600
O3021       O  0.63412271  0.77146184  0.69758961    -0.79600
O3022       O  0.68739996  0.68349398  0.66983784    -0.78000
O3023       O  0.74024536  0.67608100  0.66334642    -0.79800
O3024       O  0.64178357  0.80844449  0.73454122    -0.80700
O3025       O  0.68316000  0.75285865  0.63978263    -0.82100
O3026       O  0.64058211  0.70589183  0.71651709    -0.82400
Eu3027     Eu  0.68176970  0.73637165  0.69313258     2.39200
O3028       O  0.73484662  0.73650693  0.67507364    -0.89900
O3029       O  0.67601724  0.75225330  0.74523283    -0.93500
C3030       C  0.63506472  0.69292734  0.74289063     1.01200
C3031       C  0.69767643  0.77265674  0.62146725     1.01000
C3032       C  0.62519530  0.79570079  0.71392585     1.01000
C3033       C  0.71177040  0.66652663  0.66212130     0.98800
H3034       H  0.68807764  0.80061691  0.68344294     0.28600
O3035       O  0.70058737  0.78738717  0.69591088    -1.02200
H3036       H  0.70259745  0.68160535  0.72298777     0.28600
O3037       O  0.71123568  0.70251518  0.72317582    -1.04800
O3038       O  0.80475977  0.81490453  0.68015017    -0.82000
O3039       O  0.73423848  0.72683601  0.82352574    -0.81600
O3040       O  0.70375762  0.85018063  0.71315833    -0.80000
O3041       O  0.78977786  0.70845290  0.64976046    -0.83300
O3042       O  0.75437498  0.65315640  0.73538557    -0.81200
O3043       O  0.67245434  0.79450055  0.80452166    -0.79800
O3044       O  0.77239673  0.82680137  0.77981977    -0.81400
O3045       O  0.82888855  0.73663116  0.75495018    -0.83300
O3046       O  0.71945322  0.83569692  0.78491036    -0.80000
O3047       O  0.81903004  0.69656996  0.72154856    -0.82700
O3048       O  0.73718680  0.84058108  0.67034343    -0.78400
O3049       O  0.66452314  0.74274845  0.80722743    -0.78500
O3050       O  0.72388178  0.66632240  0.77899103    -0.78100
O3051       O  0.78057129  0.75832957  0.63418316    -0.81600
O3052       O  0.81979811  0.80446577  0.72914054    -0.81000
O3053       O  0.77808302  0.75814236  0.81371063    -0.79400
Eu3054     Eu  0.75375635  0.78752170  0.67584310     2.39800
Eu3055     Eu  0.70633279  0.71946726  0.77462361     2.39600
Eu3056     Eu  0.69601366  0.80293240  0.74851837     2.38400
Eu3057     Eu  0.76505916  0.70312093  0.70435885     2.39900
Eu3058     Eu  0.78094813  0.77216433  0.75813123     2.39800
O3059       O  0.76029912  0.72092557  0.75613906    -0.93800
O3060       O  0.74954500  0.80422421  0.72824860    -0.92700
C3061       C  0.82385701  0.81726299  0.70217876     1.01400
C3062       C  0.75880511  0.74206577  0.83217889     1.00100
C3063       C  0.71869237  0.85832402  0.68693810     0.99500
C3064       C  0.79045124  0.73055354  0.62910370     1.01500
C3065       C  0.73922806  0.64626006  0.76192685     1.00400
C3066       C  0.66410967  0.76937374  0.82016401     0.99300
C3067       C  0.74801734  0.84427754  0.78720817     0.99300
C3068       C  0.83694033  0.71107890  0.74009844     1.02000
H3069       H  0.72631769  0.77768275  0.79746244     0.29300
O3070       O  0.72740008  0.77009994  0.77643891    -1.05900
H3071       H  0.80696775  0.75477767  0.69715582     0.31400
O3072       O  0.78494040  0.75469536  0.70575742    -1.08500
C3073       C  0.59063051  0.72242339  0.98860610     0.85600
C3074       C  0.62013609  0.72312251  0.50813265    -0.54700
C3075       C  0.63711696  0.75046180  0.50745833     0.08500
C3076       C  0.62429862  0.77461059  0.98369828     0.19400
C3077       C  0.57221942  0.75230553  0.99841832    -0.55400
C3078       C  0.58964769  0.77950248  0.99533229     0.08600
C3079       C  0.60477607  0.72963061  0.95571078    -0.54900
C3080       C  0.62270711  0.75653379  0.95250899     0.09200
H3081       H  0.62301891  0.70604968  0.52624571     0.13700
H3082       H  0.63845797  0.79648224  0.98165884    -0.00600
H3083       H  0.54775561  0.75236494  0.00762808     0.14000
H3084       H  0.60102473  0.71421833  0.93625035     0.13800
C3085       C  0.97691348  0.89637534  0.75261879     0.85600
C3086       C  0.00576587  0.87630325  0.74796670    -0.54700
C3087       C  0.00697775  0.85932180  0.72148638     0.08500
C3088       C  0.97811513  0.86411350  0.70147147     0.19400
C3089       C  0.97633915  0.91616250  0.72215465    -0.55400
C3090       C  0.97671545  0.89914091  0.69494259     0.08600
C3091       C  0.94878081  0.87360308  0.75001186    -0.54900
C3092       C  0.94748067  0.85869148  0.72208878     0.09200
H3093       H  0.52436964  0.87916962  0.76378736     0.13700
H3094       H  0.97965953  0.84948616  0.68084948    -0.00600
H3095       H  0.97376806  0.94087944  0.72249683     0.14000
H3096       H  0.92907500  0.87277987  0.76750604     0.13800
C3097       C  0.86482210  0.70866239  0.96003223     0.85600
C3098       C  0.83716357  0.71230370  0.94019523    -0.54700
C3099       C  0.81927877  0.73789645  0.94546346     0.08500
C3100       C  0.83201463  0.75910020  0.97169406     0.19400
C3101       C  0.88464224  0.73904292  0.95481798    -0.55400
C3102       C  0.86782822  0.76638867  0.96093840     0.08600
C3103       C  0.85135822  0.71185946  0.49334578    -0.54900
C3104       C  0.83479274  0.73731403  0.00054211     0.09200
H3105       H  0.83294694  0.69569836  0.92180154     0.13700
H3106       H  0.81683234  0.77951706  0.97650761    -0.00600
H3107       H  0.91004675  0.73875208  0.94945531     0.14000
H3108       H  0.85735491  0.69592640  0.51160175     0.13800
C3109       C  0.73634692  0.52809081  0.83412015     0.85600
C3110       C  0.75818187  0.52962683  0.86086450    -0.54700
C3111       C  0.75980540  0.00320162  0.87839926     0.08500
C3112       C  0.73598862  0.97746484  0.86872726     0.19400
C3113       C  0.74702467  0.99832872  0.81688364    -0.55400
C3114       C  0.74594701  0.97141600  0.83433553     0.08600
C3115       C  0.70320508  0.51855942  0.84913124    -0.54900
C3116       C  0.70284008  0.99241245  0.86777650     0.09200
H3117       H  0.77479545  0.54880101  0.86343738     0.13700
H3118       H  0.73506104  0.95637270  0.88334148    -0.00600
H3119       H  0.75440478  0.99855072  0.79240443     0.14000
H3120       H  0.68155211  0.52978919  0.84362734     0.13800
C3121       C  0.64368364  0.79516338  0.87219354    -0.02800
C3122       C  0.65546061  0.76889648  0.85513920     0.06900
C3123       C  0.66071334  0.74114025  0.87259657    -0.02900
C3124       C  0.65567507  0.74061778  0.90516911    -0.02900
C3125       C  0.63945892  0.76465416  0.92118798     0.07000
C3126       C  0.63555731  0.79296172  0.90489959    -0.03100
Br3127     Br  0.62161683  0.82963154  0.92710263    -0.01600
Br3128     Br  0.63560161  0.83345154  0.85081245    -0.01700
Br3129     Br  0.67290122  0.70715437  0.92876353    -0.01700
Br3130     Br  0.67173734  0.70107108  0.85415082    -0.01600
C3131       C  0.69925842  0.78085722  0.56200169    -0.02800
C3132       C  0.68263163  0.77627906  0.59125493     0.06900
C3133       C  0.64989925  0.76974545  0.59191079    -0.02900
C3134       C  0.63605891  0.75861433  0.56550030    -0.02900
C3135       C  0.65316234  0.76036122  0.53599750     0.07000
C3136       C  0.68394213  0.77411054  0.53428322    -0.03100
Br3137     Br  0.70472579  0.78417404  0.49427709    -0.01600
Br3138     Br  0.74179223  0.79761727  0.55973682    -0.01700
Br3139     Br  0.59165048  0.74632977  0.57075674    -0.01700
Br3140     Br  0.62284124  0.78048198  0.62832364    -0.01600
C3141       C  0.76575151  0.71489703  0.88337252    -0.02800
C3142       C  0.76531168  0.74232900  0.86576544     0.06900
C3143       C  0.77280665  0.77066312  0.88027359    -0.02900
C3144       C  0.78973013  0.77086897  0.90743637    -0.02900
C3145       C  0.79284697  0.74284302  0.92407406     0.07000
C3146       C  0.77597958  0.71619735  0.91378904    -0.03100
Br3147     Br  0.76759206  0.68081825  0.94053786    -0.01600
Br3148     Br  0.75551890  0.67511969  0.86539125    -0.01700
Br3149     Br  0.81078782  0.80882388  0.91853519    -0.01700
Br3150     Br  0.75535382  0.80840340  0.86543665    -0.01600
C3151       C  0.83416990  0.73049792  0.58763576    -0.02800
C3152       C  0.80213235  0.72514834  0.59635412     0.06900
C3153       C  0.78015036  0.72461512  0.57316139    -0.02900
C3154       C  0.78987275  0.73167057  0.54187658    -0.02900
C3155       C  0.82159946  0.74013464  0.53339250     0.07000
C3156       C  0.84375906  0.73944995  0.55687424    -0.03100
Br3157     Br  0.88789818  0.74947495  0.54686662    -0.01600
Br3158     Br  0.86479475  0.72190261  0.61748983    -0.01700
Br3159     Br  0.76013123  0.72770040  0.51036851    -0.01700
Br3160     Br  0.73713041  0.71154406  0.58429948    -0.01600
C3161       C  0.76834843  0.91561874  0.83425236    -0.02800
C3162       C  0.75038210  0.93944469  0.82057950     0.06900
C3163       C  0.73361802  0.93123674  0.79443712    -0.02900
C3164       C  0.72955219  0.89982723  0.78730097    -0.02900
C3165       C  0.75109024  0.87725549  0.79744468     0.07000
C3166       C  0.77257965  0.88663650  0.81917426    -0.03100
Br3167     Br  0.80644747  0.85986793  0.83018225    -0.01600
Br3168     Br  0.78397552  0.91808714  0.87514108    -0.01700
Br3169     Br  0.69109184  0.88995134  0.76708083    -0.01700
Br3170     Br  0.71366335  0.96096560  0.76819474    -0.01600
C3171       C  0.76439976  0.59350264  0.77350500    -0.02800
C3172       C  0.73816881  0.61365890  0.77533189     0.06900
C3173       C  0.71181767  0.60507228  0.79570195    -0.02900
C3174       C  0.71405415  0.58126316  0.81766942    -0.02900
C3175       C  0.73804691  0.55851307  0.81389561     0.07000
C3176       C  0.76413750  0.56587547  0.79193922    -0.03100
Br3177     Br  0.80208084  0.54127767  0.78890517    -0.01600
Br3178     Br  0.80124557  0.60377915  0.74642047    -0.01700
Br3179     Br  0.69130570  0.58868578  0.85748656    -0.01700
Br3180     Br  0.67125250  0.62512194  0.79403033    -0.01600
C3181       C  0.85857178  0.85943572  0.71877316    -0.02800
C3182       C  0.85305987  0.83571405  0.69750102     0.06900
C3183       C  0.87833271  0.82468000  0.67802378    -0.02900
C3184       C  0.90974387  0.83105181  0.68554180    -0.02900
C3185       C  0.91548498  0.85351355  0.70908589     0.07000
C3186       C  0.88904158  0.87120791  0.72105357    -0.03100
Br3187     Br  0.89200362  0.91270913  0.73845682    -0.01600
Br3188     Br  0.82545672  0.87362510  0.74794782    -0.01700
Br3189     Br  0.94233298  0.80629641  0.66452876    -0.01700
Br3190     Br  0.86946542  0.79983891  0.64233989    -0.01600
C3191       C  0.59394963  0.84453066  0.70729174    -0.02800
C3192       C  0.59451929  0.81155576  0.70881899     0.06900
C3193       C  0.56540495  0.79508752  0.70878148    -0.02900
C3194       C  0.53638236  0.81114490  0.71291534    -0.02900
C3195       C  0.53605820  0.84394854  0.71264964     0.07000
C3196       C  0.56503532  0.86046671  0.70816802    -0.03100
Br3197     Br  0.56527717  0.90540610  0.70411532    -0.01600
Br3198     Br  0.63271394  0.86864829  0.70316145    -0.01700
Br3199     Br  0.49767179  0.78827614  0.72291979    -0.01700
Br3200     Br  0.56483639  0.75097864  0.70202452    -0.01600
C3201       C  0.73344830  0.94476679  0.67195867    -0.02800
C3202       C  0.71661239  0.95022283  0.64520743     0.06900
C3203       C  0.70237392  0.92395938  0.63107944    -0.02900
C3204       C  0.70032867  0.89482738  0.64653494    -0.02900
C3205       C  0.71543550  0.89033450  0.67433320     0.07000
C3206       C  0.73387595  0.91484039  0.68534528    -0.03100
Br3207     Br  0.76413863  0.90591802  0.71507690    -0.01600
Br3208     Br  0.76029443  0.97672050  0.68791733    -0.01700
Br3209     Br  0.67849571  0.86010019  0.62844142    -0.01700
Br3210     Br  0.68895341  0.92496669  0.58918748    -0.01600
C3211       C  0.73034660  0.61186741  0.66652593    -0.02800
C3212       C  0.70779065  0.63285202  0.65563592     0.06900
C3213       C  0.67941586  0.62055432  0.64492717    -0.02900
C3214       C  0.67430777  0.58806239  0.64485297    -0.02900
C3215       C  0.69879366  0.56789713  0.65274416     0.07000
C3216       C  0.72240879  0.58053412  0.67019184    -0.03100
Br3217     Br  0.74532420  0.55472087  0.69700255    -0.01600
Br3218     Br  0.77482606  0.62204448  0.66898560    -0.01700
Br3219     Br  0.63197301  0.57183260  0.64073228    -0.01700
Br3220     Br  0.64981457  0.64714827  0.62592306    -0.01600
C3221       C  0.96722261  0.89478624  0.60799726    -0.02800
C3222       C  0.94643334  0.91911529  0.60233445     0.06900
C3223       C  0.93654486  0.93887558  0.62717289    -0.02900
C3224       C  0.94687209  0.93419948  0.65742783    -0.02900
C3225       C  0.96907507  0.91021576  0.66284753     0.07000
C3226       C  0.98091725  0.89259861  0.63671957    -0.03100
Br3227     Br  0.02046896  0.87030440  0.63731285    -0.01600
Br3228     Br  0.98165272  0.86813362  0.57379429    -0.01700
Br3229     Br  0.93237955  0.96412634  0.68856338    -0.01700
Br3230     Br  0.91242879  0.97542768  0.61815551    -0.01600
C3231       C  0.95882964  0.91143826  0.83975886    -0.02800
C3232       C  0.96532424  0.94337195  0.84289503     0.06900
C3233       C  0.97683180  0.96029306  0.81654521    -0.02900
C3234       C  0.98388929  0.94514018  0.78787801    -0.02900
C3235       C  0.97587448  0.91313312  0.78432132     0.07000
C3236       C  0.96675261  0.89593323  0.81173911    -0.03100
Br3237     Br  0.47051299  0.85441672  0.81250331    -0.01600
Br3238     Br  0.43588527  0.89247269  0.87209187    -0.01700
Br3239     Br  0.01333956  0.96635448  0.75858739    -0.01700
Br3240     Br  0.98313471  0.00438132  0.81963174    -0.01600
C3241       C  0.66592170  0.96950228  0.91239522    -0.02800
C3242       C  0.67140769  0.97785930  0.88054507     0.06900
C3243       C  0.64489076  0.47327716  0.86083637    -0.02900
C3244       C  0.61485178  0.96552275  0.87391435    -0.02900
C3245       C  0.60885063  0.96260206  0.90612157     0.07000
C3246       C  0.63481416  0.96211847  0.92493647    -0.03100
Br3247     Br  0.62698248  0.95086353  0.96811415    -0.01600
Br3248     Br  0.69984289  0.96986577  0.93996292    -0.01700
Br3249     Br  0.57971585  0.45682976  0.84772325    -0.01700
Br3250     Br  0.64989395  0.47899975  0.81659915    -0.01600
C3251       C  0.81603526  0.98416456  0.88071187    -0.02800
C3252       C  0.78850082  0.99728744  0.89589096     0.06900
C3253       C  0.79068232  0.00958088  0.92603845    -0.02900
C3254       C  0.81939158  0.00760496  0.94081634    -0.02900
C3255       C  0.84454360  0.98952028  0.92767272     0.07000
C3256       C  0.84237996  0.97745005  0.89754808    -0.03100
Br3257     Br  0.87697933  0.95375701  0.87816374    -0.01600
Br3258     Br  0.82092670  0.97918073  0.83616791    -0.01700
Br3259     Br  0.82628538  0.03485031  0.97504281    -0.01700
Br3260     Br  0.75553135  0.53323817  0.94477167    -0.01600
C3261       C  0.61796133  0.48451712  0.55999686    -0.02800
C3262       C  0.61645547  0.50151302  0.53150495     0.06900
C3263       C  0.64578209  0.01721436  0.51851872    -0.02900
C3264       C  0.67207637  0.51706162  0.53607847    -0.02900
C3265       C  0.67259883  0.50128808  0.56482606     0.07000
C3266       C  0.64451827  0.48694583  0.57740915    -0.03100
Br3267     Br  0.63863864  0.47750268  0.62168513    -0.01600
Br3268     Br  0.58484429  0.45682425  0.57776964    -0.01700
Br3269     Br  0.70687285  0.04727385  0.52367189    -0.01700
Br3270     Br  0.64684372  0.03701642  0.97900888    -0.01600
C3271       C  0.84123515  0.53241140  0.58317353    -0.02800
C3272       C  0.84770867  0.51612366  0.55522601     0.06900
C3273       C  0.82259939  0.49781873  0.54359798    -0.02900
C3274       C  0.79125841  0.50092884  0.55601694    -0.02900
C3275       C  0.78509820  0.51510813  0.58536587     0.07000
C3276       C  0.81135350  0.52896398  0.59969685    -0.03100
Br3277     Br  0.80945097  0.53868621  0.64352421    -0.01600
Br3278     Br  0.87422613  0.55629019  0.60111471    -0.01700
Br3279     Br  0.75862252  0.98778313  0.53058324    -0.01700
Br3280     Br  0.82922886  0.96476615  0.01367759    -0.01600
C3281       C  0.87827170  0.62281355  0.97506133    -0.02800
C3282       C  0.90170468  0.61504755  0.95192540     0.06900
C3283       C  0.90794631  0.63549816  0.92658374    -0.02900
C3284       C  0.89770989  0.66673971  0.92908455    -0.02900
C3285       C  0.87757054  0.67566009  0.95510907     0.07000
C3286       C  0.86284457  0.65083103  0.97307649    -0.03100
Br3287     Br  0.81936744  0.65128857  0.99097809    -0.01600
Br3288     Br  0.86597808  0.59562207  0.00967713    -0.01700
Br3289     Br  0.90793691  0.69521679  0.89530111    -0.01700
Br3290     Br  0.92578736  0.61971839  0.88767656    -0.01600
C3291       C  0.89732714  0.84739657  0.98889845    -0.02800
C3292       C  0.92112679  0.85611725  0.96539586     0.06900
C3293       C  0.92859266  0.83367044  0.94192715    -0.02900
C3294       C  0.90917333  0.80663952  0.93871772    -0.02900
C3295       C  0.88438607  0.79852565  0.96145662     0.07000
C3296       C  0.87853435  0.81997012  0.98640331    -0.03100
Br3297     Br  0.84492963  0.81360625  0.01846603    -0.01600
Br3298     Br  0.89375707  0.86963521  0.02829613    -0.01700
Br3299     Br  0.91488723  0.78303065  0.90058861    -0.01700
Br3300     Br  0.96848071  0.83589010  0.91758712    -0.01600
C3301       C  0.52185427  0.65916211  0.98991151    -0.02800
C3302       C  0.53725140  0.63207353  0.99910667     0.06900
C3303       C  0.56991921  0.63420627  0.00366208    -0.02900
C3304       C  0.58734891  0.66204798  0.99728159    -0.02900
C3305       C  0.57176347  0.69051932  0.99092685     0.07000
C3306       C  0.53888618  0.68777903  0.98509183    -0.03100
Br3307     Br  0.51735051  0.72038215  0.96456529    -0.01600
Br3308     Br  0.97663443  0.65742562  0.98322414    -0.01700
Br3309     Br  0.63339735  0.65643340  0.48773969    -0.01700
Br3310     Br  0.59166698  0.59767489  0.51733353    -0.01600
C3311       C  0.56521964  0.85926429  0.52555839    -0.02800
C3312       C  0.55044449  0.87109737  0.49986892     0.06900
C3313       C  0.54793381  0.85188597  0.97340258    -0.02900
C3314       C  0.55653164  0.82060688  0.97468384    -0.02900
C3315       C  0.57508088  0.81075639  0.99842103     0.07000
C3316       C  0.58145816  0.83086525  0.52280705    -0.03100
Br3317     Br  0.61375528  0.82449331  0.55071429    -0.01600
Br3318     Br  0.56421237  0.88077960  0.56461574    -0.01700
Br3319     Br  0.54724714  0.79300370  0.94072168    -0.01700
Br3320     Br  0.54337755  0.86766525  0.93153426    -0.01600
C3321       C  0.96740464  0.57743205  0.62953342    -0.02800
C3322       C  0.98668094  0.55107951  0.62051633     0.06900
C3323       C  0.50413058  0.53845212  0.64485901    -0.02900
C3324       C  0.50431530  0.55291475  0.67498397    -0.02900
C3325       C  0.98532967  0.57906445  0.68343420     0.07000
C3326       C  0.96510567  0.58916421  0.66064148    -0.03100
Br3327     Br  0.93021846  0.61628861  0.67264759    -0.01600
Br3328     Br  0.94519842  0.60134618  0.59982586    -0.01700
Br3329     Br  0.53275656  0.53599853  0.70316293    -0.01700
Br3330     Br  0.53116922  0.50293327  0.63642817    -0.01600
C3331       C  0.49486624  0.61556647  0.83146944    -0.02800
C3332       C  0.00023312  0.59476189  0.80461130     0.06900
C3333       C  0.02463670  0.57226804  0.80722232    -0.02900
C3334       C  0.03359519  0.56296423  0.83664295    -0.02900
C3335       C  0.02051560  0.57733809  0.86326435     0.07000
C3336       C  0.50408782  0.60615174  0.86080935    -0.03100
Br3337     Br  0.50138370  0.63291822  0.89695904    -0.01600
Br3338     Br  0.48127459  0.65837002  0.82900197    -0.01700
Br3339     Br  0.06671694  0.53364698  0.84146195    -0.01700
Br3340     Br  0.05127562  0.55838766  0.77227039    -0.01600
C3341       C  0.89624818  0.64846350  0.75728717    -0.02800
C3342       C  0.92530048  0.65846079  0.74113365     0.06900
C3343       C  0.92474313  0.68791277  0.72583237    -0.02900
C3344       C  0.89630599  0.70565268  0.72626627    -0.02900
C3345       C  0.86867136  0.69621580  0.74413527     0.07000
C3346       C  0.86992137  0.66853979  0.76131515    -0.03100
Br3347     Br  0.83641585  0.65968310  0.79279138    -0.01600
Br3348     Br  0.88917103  0.60553200  0.76980193    -0.01700
Br3349     Br  0.89478534  0.74349796  0.70269123    -0.01700
Br3350     Br  0.96213134  0.70505206  0.70407157    -0.01600
C3351       C  0.57795877  0.69621871  0.75581661    -0.02800
C3352       C  0.60379612  0.67795774  0.74522889     0.06900
C3353       C  0.59896648  0.65334710  0.72444249    -0.02900
C3354       C  0.56895883  0.64792070  0.71313444    -0.02900
C3355       C  0.54223725  0.66379856  0.72614945     0.07000
C3356       C  0.54734201  0.68899090  0.74674340    -0.03100
Br3357     Br  0.51183576  0.71081462  0.76629392    -0.01600
Br3358     Br  0.58508723  0.73207096  0.78176991    -0.01700
Br3359     Br  0.56364846  0.61610534  0.68244011    -0.01700
Br3360     Br  0.63402858  0.62683229  0.71226773    -0.01600
loop_ 
_geom_bond_atom_site_label_1 
_geom_bond_atom_site_label_2 
_geom_bond_distance 
_geom_bond_site_symmetry_2 
_ccdc_geom_bond_type 
C1            C2   1.533       .  S
C1            C5   1.569       .  S
C1         C1687   1.489       .  S
C1          C392   1.554       .  S
C2            H9   1.082       .  S
C2            C3   1.373       .  D
C3         C1684   1.585       .  S
C3          C402   1.544       .  S
C4            C8   1.562   1_655  S
C4         C1683   1.586       .  S
C4         C1686   1.579       .  S
C4           H10   1.104       .  S
C5           H11   1.083       .  S
C5            C6   1.394       .  D
C6         C1684   1.577       .  S
C6          C385   1.563       .  S
C7         C1681   1.488   1_455  S
C7           H12   1.092       .  S
C7            C8   1.335       .  D
C8          C415   1.481       .  S
O13         Eu49   2.473       .  S
O13        C1704   1.292       .  A
O14        Eu468   2.524       .  S
O14          C25   1.299       .  A
O15        Eu861   2.488       .  S
O15          C26   1.294       .  A
O16         Eu21   2.458       .  S
O16          C27   1.289       .  A
O17        Eu471   2.419       .  S
O17          C27   1.286       .  A
O18         Eu50   2.436       .  S
O18          C26   1.288       .  A
O19        Eu861   2.400       .  S
O19          C25   1.281       .  A
O20         Eu21   2.416       .  S
O20          C24   1.284       .  A
Eu21        O855   2.483   1_545  S
Eu21        O859   2.402       .  S
Eu21         O31   2.351       .  S
Eu21         O22   2.355       .  S
Eu21        O863   2.347   1_545  S
Eu21        O869   2.359   1_545  S
O22        Eu471   2.351       .  S
O22       Eu1308   2.356   1_545  S
O23         Eu50   2.354       .  S
O23        Eu861   2.348       .  S
O23       Eu2569   2.371       .  S
C24        O1693   1.293       .  A
C24         C395   1.464       .  S
C25         C315   1.481       .  S
C26         C292   1.487       .  S
C27         C342   1.468       .  S
H28          O29   0.966       .  S
O29         Eu50   2.333       .  S
O29        Eu861   2.361       .  S
O29        Eu468   2.356       .  S
H30          O31   0.968       .  S
O31       Eu1729   2.362       .  S
O31        Eu471   2.371       .  S
O32         Eu48   2.531   1_554  S
O32          C55   1.302       .  A
O33         Eu49   2.500       .  S
O33         C476   1.295       .  A
O34         Eu50   2.544       .  S
O34          C57   1.303       .  A
O35         Eu51   2.583       .  S
O35          C58   1.313       .  A
O36         Eu51   2.538       .  S
O36        C2159   1.305   1_554  A
O37       Eu1730   2.526   1_455  S
O37          C60   1.302       .  A
O38         Eu52   2.537       .  S
O38          C61   1.302   1_554  A
O39        Eu892   2.581   1_545  S
O39        C1742   1.311   1_455  A
O40       Eu1730   2.335   1_455  S
O40         C481   1.264       .  A
O41         Eu51   2.439       .  S
O41          C62   1.283       .  A
O42        Eu468   2.449       .  S
O42          C57   1.288       .  A
O43        Eu889   2.433       .  S
O43          C60   1.287       .  A
O44         Eu49   2.440       .  S
O44          C59   1.289       .  A
O45         Eu48   2.352   1_554  S
O45         C898   1.269       .  A
O46       Eu1732   2.356       .  S
O46          C55   1.276       .  A
O47         Eu52   2.398       .  S
O47         C896   1.278       .  A
Eu48        O434   2.516       .  S
Eu48        O462   2.447       .  S
Eu48         O66   2.363   1_556  S
Eu48       O1282   2.356       .  S
Eu48        O449   2.351       .  S
Eu48        O474   2.316       .  S
Eu49        O883   2.445   1_545  S
Eu49       O2543   2.371   1_545  S
Eu49       O1711   2.359   1_455  S
Eu49        O473   2.365       .  S
Eu49        O904   2.340   1_545  S
Eu50       O1717   2.529       .  S
Eu50       O1720   2.340       .  S
Eu50         O54   2.354       .  S
Eu50       O1744   2.369       .  S
Eu51        O437   2.417   1_554  S
Eu51        O442   2.349   1_554  S
Eu51        O451   2.370   1_554  S
Eu51       O1733   2.375       .  S
Eu51        O906   2.345   1_545  S
Eu52        O879   2.598   1_455  S
Eu52       O1726   2.346   1_455  S
Eu52        O893   2.345       .  S
Eu52        O484   2.344   1_554  S
Eu52       O1746   2.339   1_455  S
Eu52       O2154   2.372   1_454  S
O53        Eu469   2.366   1_554  S
O53       Eu1731   2.374   1_455  S
O53        Eu892   2.342   1_545  S
O54        Eu468   2.317       .  S
O54       Eu2152   2.365       .  S
C55         C282   1.469       .  S
C56         O453   1.294   1_554  A
C56         O887   1.277   1_545  A
C56         C322   1.510       .  S
C57         C352   1.534       .  S
C58         O885   1.270   1_545  A
C58         C332   1.504       .  S
C59        O2136   1.305   1_455  A
C59         C362   1.508       .  S
C60         C305   1.487       .  S
C61         O460   1.259       .  A
C61         C372   1.499       .  S
C62        O1719   1.312       .  A
C62         C382   1.559       .  S
H63          O64   0.965       .  S
O64        Eu889   2.347       .  S
O64       Eu1730   2.374   1_455  S
O64        Eu472   2.342       .  S
H65          O66   0.964       .  S
O66        Eu891   2.347       .  S
O66       Eu1732   2.343       .  S
C67          C68   1.516       .  S
C67          C73   1.539       .  S
C67          C71   1.545       .  S
C67         C275   1.533       .  S
C68          H75   1.080       .  S
C68          C69   1.345       .  D
C69         C910   1.564   1_545  S
C69         C325   1.480       .  S
C70          C72   1.540       .  S
C70         C909   1.562       .  S
C70         C914   1.563       .  S
C70          H76   1.098       .  S
C71          H77   1.086       .  S
C71         C912   1.375   1_545  D
C72         C911   1.376       .  D
C72         C262   1.513       .  S
C73          H78   1.084       .  S
C73          C74   1.365       .  D
C74         C910   1.565   1_545  S
C74         C335   1.519       .  S
O79        Eu115   2.536       .  S
O79          C90   1.303       .  A
O80        Eu114   2.507       .  S
O80          C91   1.295       .  A
O81         Eu87   2.498       .  S
O81          C92   1.295       .  A
O82         Eu87   2.473       .  S
O82          C93   1.291       .  A
O83        Eu117   2.418       .  S
O83          C93   1.273       .  A
O84        Eu116   2.433       .  S
O84          C92   1.288       .  A
O85         Eu87   2.396       .  S
O85          C91   1.282       .  A
O86         Eu87   2.340       .  S
O86          C90   1.272       .  A
Eu87         O97   2.363       .  S
Eu87         O89   2.344       .  S
Eu87         O88   2.324       .  S
Eu87         O95   2.329       .  S
O88        Eu117   2.353       .  S
O88        Eu114   2.324       .  S
O89        Eu115   2.344       .  S
O89        Eu116   2.336       .  S
C90         C412   1.465       .  S
C91         C192   1.494       .  S
C92         C252   1.494       .  S
C93         C272   1.480       .  S
H94          O95   0.968       .  S
O95        Eu116   2.358       .  S
O95        Eu114   2.352       .  S
H96          O97   0.966       .  S
O97        Eu115   2.331       .  S
O97        Eu117   2.364       .  S
O98        Eu114   2.464       .  S
O98         C121   1.291       .  A
O99        Eu115   2.506       .  S
O99         C122   1.298       .  A
O100       Eu116   2.542       .  S
O100        C123   1.302       .  A
O101       Eu117   2.517       .  S
O101        C124   1.301       .  A
O102       Eu117   2.545       .  S
O102        C125   1.304       .  A
O103       Eu116   2.569       .  S
O103        C126   1.304       .  A
O104       Eu118   2.549       .  S
O104        C127   1.305       .  A
O105       Eu118   2.543       .  S
O105        C128   1.305       .  A
O106       Eu116   2.369       .  S
O106        C127   1.269       .  A
O107       Eu117   2.466       .  S
O107        C128   1.292       .  A
O108       Eu114   2.405       .  S
O108        C123   1.281       .  A
O109       Eu115   2.417       .  S
O109        C126   1.272       .  A
O110       Eu115   2.417       .  S
O110        C125   1.285       .  A
O111       Eu114   2.416       .  S
O111        C124   1.282       .  A
O112       Eu118   2.430       .  S
O112        C121   1.287       .  A
O113       Eu118   2.465       .  S
O113        C122   1.295       .  A
Eu114       O132   2.379       .  S
Eu114       O120   2.365       .  S
Eu115       O119   2.367       .  S
Eu115       O130   2.344       .  S
Eu116       O130   2.339       .  S
Eu116       O120   2.372       .  S
Eu117       O119   2.353       .  S
Eu117       O132   2.364       .  S
Eu118       O119   2.360       .  S
Eu118       O130   2.350       .  S
Eu118       O132   2.373       .  S
Eu118       O120   2.363       .  S
C121        C242   1.466       .  S
C122        C202   1.493       .  S
C123        C265   1.488       .  S
C124        C212   1.482       .  S
C125        C232   1.510       .  S
C126        C182   1.528       .  S
C127        C225   1.491       .  S
C128        C405   1.510       .  S
H129        O130   0.960       .  S
H131        O132   0.979       .  S
C133        C139   1.531       .  S
C133        C137   1.554       .  S
C133        C554   1.541       .  S
C133        C365   1.577       .  S
C134        C553   1.540   1_554  S
C134        H141   1.085       .  S
C134        C135   1.366       .  D
C135        C556   1.547   1_554  S
C135        C195   1.501       .  S
C136        C140   1.556       .  S
C136        C138   1.535       .  S
C136        C555   1.545       .  S
C136        H142   1.107       .  S
C137        H143   1.083       .  S
C137        C138   1.374       .  D
C138        C375   1.489       .  S
C139        H144   1.086       .  S
C139        C140   1.377       .  D
C140        C185   1.519       .  S
C145        C146   1.507       .  S
C145        C151   1.542       .  S
C145        C149   1.567       .  S
C145        C295   1.542       .  S
C146       H1833   1.087       .  S
C146        C147   1.352       .  D
C147        C148   1.559       .  S
C147       C1935   1.492       .  S
C148        C152   1.538       .  S
C148        C150   1.533       .  S
C148        H154   1.089       .  S
C149        H155   1.070       .  S
C149        C150   1.380       .  D
C150        C285   1.516       .  S
C151        H156   1.086       .  S
C151        C152   1.366       .  D
C152        C245   1.515       .  S
H153       C1826   1.087       .  S
C157        C158   1.507       .  S
C157        C161   1.550       .  S
C157        C583   1.514       .  S
C157        C345   1.532       .  S
C158        H165   1.088       .  S
C158        C159   1.352       .  D
C159        C160   1.570       .  S
C159        C205   1.516       .  S
C160        C164   1.573       .  S
C160        C162   1.580       .  S
C160        H166   1.105       .  S
C161        H167   1.084       .  S
C161        C162   1.395       .  D
C162        C355   1.537       .  S
C163        C577   1.514       .  S
C163        H168   1.088   1_556  S
C163        C584   1.340   1_556  D
C164        C583   1.341       .  D
C164        C635   1.504       .  S
C169        C170   1.526       .  S
C169        C175   1.554       .  S
C169       C1013   1.544   1_545  S
C169        C235   1.565       .  S
C170        H177   1.087       .  S
C170       C1011   1.363       .  D
C171        C172   1.560       .  S
C171       C1010   1.363       .  D
C171        C312   1.496       .  S
C172        C176   1.549       .  S
C172        C174   1.534       .  S
C172        H178   1.102       .  S
C173       C1009   1.545       .  S
C173        H179   1.080       .  S
C173        C174   1.379       .  D
C174        C222   1.503       .  S
C175        H180   1.081       .  S
C175       C1016   1.369   1_545  D
C176       C1015   1.368       .  D
C176        C302   1.525       .  S
C181        C182   1.424       .  A
C181        C186   1.430       .  A
C181       Br188   1.929       .  S
C182        C183   1.438       .  A
C183        C184   1.405       .  A
C183       Br190   1.942       .  S
C184        C185   1.400       .  A
C184       Br189   1.937       .  S
C185        C186   1.419       .  A
C186       Br187   1.922       .  S
C191        C192   1.413       .  A
C191        C196   1.423       .  A
C191       Br198   1.927       .  S
C192        C193   1.409       .  A
C193        C194   1.395       .  A
C193       Br200   1.935       .  S
C194        C195   1.422       .  A
C194       Br199   1.946       .  S
C195        C196   1.419       .  A
C196       Br197   1.927   1_554  S
C201        C202   1.404       .  A
C201        C206   1.410       .  A
C201       Br208   1.930       .  S
C202        C203   1.409       .  A
C203        C204   1.413       .  A
C203       Br210   1.918       .  S
C204        C205   1.415       .  A
C204       Br209   1.922       .  S
C205        C206   1.427       .  A
C206       Br207   1.921       .  S
C211        C212   1.398       .  A
C211        C216   1.412       .  A
C211       Br218   1.927       .  S
C212        C213   1.411       .  A
C213        C214   1.415       .  A
C213       Br220   1.928       .  S
C214        C215   1.410       .  A
C214       Br219   1.921       .  S
C215        C584   1.503       .  S
C215        C216   1.427       .  A
C216       Br217   1.932       .  S
C221        C222   1.432       .  A
C221        C226   1.411       .  A
C221       Br228   1.925       .  S
C222        C223   1.412       .  A
C223        C224   1.396       .  A
C223       Br230   1.943       .  S
C224        C225   1.428       .  A
C224       Br229   1.939       .  S
C225        C226   1.404       .  A
C226       Br227   1.931       .  S
C231        C232   1.413       .  A
C231        C236   1.426       .  A
C231       Br238   1.930       .  S
C232        C233   1.416       .  A
C233        C234   1.401       .  A
C233       Br240   1.934       .  S
C234        C235   1.417       .  A
C234       Br239   1.937       .  S
C235        C236   1.435       .  A
C236       Br237   1.929       .  S
C241        C242   1.398       .  A
C241        C246   1.391       .  A
C241       Br248   1.923       .  S
C242        C243   1.401       .  A
C243        C244   1.413       .  A
C243       Br250   1.924       .  S
C244        C245   1.428       .  A
C244       Br249   1.925       .  S
C245        C246   1.428       .  A
C246       Br247   1.938       .  S
C251        C252   1.415       .  A
C251        C256   1.404       .  A
C251       Br258   1.927       .  S
C252        C253   1.413       .  A
C253        C254   1.413       .  A
C253       Br260   1.918       .  S
C254        C255   1.409       .  A
C254       Br259   1.924   1_455  S
C255       C1827   1.486       .  S
C255        C256   1.410       .  A
C256       Br257   1.936       .  S
C261        C262   1.415       .  A
C261        C266   1.410       .  A
C261       Br268   1.926       .  S
C262        C263   1.425       .  A
C263        C264   1.415       .  A
C263       Br270   1.932       .  S
C264        C265   1.411       .  A
C264       Br269   1.935       .  S
C265        C266   1.405       .  A
C266       Br267   1.913       .  S
C271        C272   1.422       .  A
C271        C276   1.389       .  A
C271       Br278   1.937       .  S
C272        C273   1.413       .  A
C273        C274   1.408       .  A
C273       Br280   1.928       .  S
C274        C275   1.414       .  A
C274       Br279   1.933       .  S
C275        C276   1.395       .  A
C276       Br277   1.917       .  S
C281        C282   1.404       .  A
C281        C286   1.404       .  A
C281       Br288   1.931       .  S
C282        C283   1.407       .  A
C283        C284   1.417       .  A
C283       Br290   1.936       .  S
C284        C285   1.430       .  A
C284       Br289   1.927       .  S
C285        C286   1.419       .  A
C286       Br287   1.935       .  S
C291        C292   1.404       .  A
C291        C296   1.399       .  A
C291      Br1978   1.921       .  S
C292        C293   1.407       .  A
C293        C294   1.413       .  A
C293       Br300   1.922       .  S
C294        C295   1.422       .  A
C294       Br299   1.931       .  S
C295        C296   1.421       .  A
C296      Br1977   1.941       .  S
Br297      C1976   1.941       .  S
Br298      C1971   1.922       .  S
C301        C302   1.421       .  A
C301        C306   1.418       .  A
C301       Br308   1.924       .  S
C302       C1143   1.429       .  A
C303       C1142   1.430       .  A
C303       C1144   1.417       .  A
C303       Br310   1.919       .  S
C304        C305   1.396       .  A
C304       C1143   1.414       .  A
C304      Br1149   1.930       .  S
C305        C306   1.407       .  A
C306       Br307   1.928       .  S
Br309      C1144   1.931       .  S
C311        C312   1.418       .  A
C311        C316   1.403       .  A
C311       Br318   1.927       .  S
C312        C313   1.410       .  A
C313        C314   1.413       .  A
C313      Br1160   1.927       .  S
C314        C315   1.412       .  A
C314       Br319   1.917       .  S
C315        C316   1.404       .  A
C316       Br317   1.934       .  S
Br320      C1153   1.927       .  S
C321        C322   1.427   1_565  A
C321        C326   1.391       .  A
C321       Br328   1.932       .  S
C322       C1163   1.421       .  A
C323       C1162   1.416       .  A
C323       C1164   1.415       .  A
C323       Br750   1.929   1_554  S
C324        C325   1.416       .  A
C324       C1163   1.419       .  A
C324      Br1169   1.931       .  S
C325        C326   1.405   1_545  A
C326       Br327   1.946       .  S
Br329      C1164   1.930       .  S
Br330       C743   1.930       .  S
C331        C332   1.404       .  A
C331        C336   1.417       .  A
C331       Br338   1.928       .  S
C332        C333   1.431   1_545  A
C333        C334   1.405   1_565  A
C333      Br1600   1.940       .  S
C334        C335   1.413       .  A
C334      Br1179   1.935   1_545  S
C335        C336   1.432       .  A
C336       Br337   1.929       .  S
Br339      C1174   1.935       .  S
Br340      C1593   1.938       .  S
C341        C342   1.401       .  A
C341        C346   1.384       .  A
C341       Br348   1.934       .  S
C342        C343   1.410       .  A
C343        C344   1.415       .  A
C343       Br350   1.921       .  S
C344        C345   1.418       .  A
C344       Br349   1.924       .  S
C345        C346   1.432       .  A
C346       Br347   1.947       .  S
C351        C352   1.424       .  A
C351        C356   1.418       .  A
C351       Br358   1.944       .  S
C352        C353   1.419       .  A
C353        C354   1.426       .  A
C353       Br360   1.926       .  S
C354        C355   1.426       .  A
C354       Br359   1.932       .  S
C355        C356   1.424       .  A
C356       Br357   1.930       .  S
C361        C362   1.411       .  A
C361        C366   1.427       .  A
C361      Br2048   1.933   1_455  S
C362        C363   1.412       .  A
C363        C364   1.414       .  A
C363       Br790   1.937       .  S
C364        C365   1.430       .  A
C364       Br789   1.940       .  S
C365        C366   1.434       .  A
C366       Br367   1.930       .  S
Br368      C2041   1.934       .  S
Br369       C784   1.941       .  S
Br370       C783   1.937       .  S
C371        C372   1.408   1_554  A
C371        C376   1.411       .  A
C371       Br378   1.938       .  S
C372        C793   1.440       .  A
C373        C374   1.399       .  A
C373        C792   1.436       .  A
C373       Br380   1.947       .  S
C374        C375   1.400       .  A
C374       Br379   1.936       .  S
C375        C796   1.417       .  A
C376        C795   1.420   1_554  A
C376       Br377   1.902       .  S
C381        C382   1.442       .  A
C381        C386   1.428       .  A
C381       Br388   1.944       .  S
C382       C2063   1.424       .  A
C383        C384   1.437       .  A
C383       C2062   1.424   1_455  A
C383       Br390   1.939       .  S
C384       C2065   1.434   1_455  A
C384       Br389   1.915       .  S
C385        C386   1.419       .  A
C385       C2064   1.433       .  A
C386       Br387   1.935       .  S
C391        C396   1.410   1_655  A
C391       C2072   1.446       .  A
C391       Br398   1.938       .  S
C392        C393   1.432       .  A
C392       C2071   1.445       .  A
C393        C394   1.409       .  A
C393       Br400   1.915       .  S
C394        C395   1.387       .  A
C394       Br399   1.920       .  S
C395       C2076   1.388       .  A
C396       C2075   1.386       .  A
C396       Br397   1.933       .  S
C401        C402   1.432       .  A
C401        C406   1.416       .  A
C401       Br408   1.936       .  S
C402        C403   1.427       .  A
C403        C404   1.429       .  A
C403       Br410   1.923       .  S
C404        C405   1.410       .  A
C404       Br409   1.921       .  S
C405        C406   1.404       .  A
C406       Br407   1.929       .  S
C411        C412   1.404       .  A
C411        C416   1.410       .  A
C411       Br418   1.933       .  S
C412        C413   1.407       .  A
C413        C414   1.408       .  A
C413       Br420   1.923       .  S
C414        C415   1.410       .  A
C414       Br419   1.922       .  S
C415        C416   1.420       .  A
C416       Br417   1.925       .  S
C421        C422   1.534       .  S
C421       C2107   1.489       .  S
C421        C425   1.567       .  S
C421        C812   1.554       .  S
C422        H429   1.082       .  S
C422        C423   1.374       .  D
C423       C2104   1.585       .  S
C423        C822   1.545       .  S
C424       C2103   1.586       .  S
C424        C428   1.566   1_655  S
C424       C2106   1.580       .  S
C424        H430   1.105       .  S
C425        H431   1.083       .  S
C425        C426   1.393       .  D
C426       C2104   1.581       .  S
C426        C805   1.566       .  S
C427       C2101   1.487   1_455  S
C427        H432   1.093       .  S
C427        C428   1.334       .  D
C428        C835   1.483       .  S
O433       Eu469   2.477       .  S
O433       C2124   1.292       .  A
O434        C445   1.297       .  A
O435      Eu1281   2.481       .  S
O435        C446   1.293       .  A
O436       Eu441   2.457       .  S
O436        C447   1.289       .  A
O437        C447   1.285       .  A
O438       Eu470   2.438       .  S
O438        C446   1.289       .  A
O439      Eu1281   2.404       .  S
O439        C445   1.282       .  A
O440       Eu441   2.421       .  S
O440        C444   1.284       .  A
Eu441      O1275   2.481   1_545  S
Eu441      O1279   2.401       .  S
Eu441       O451   2.351       .  S
Eu441      O1283   2.346   1_545  S
Eu441       O442   2.354       .  S
Eu441      O1289   2.359   1_545  S
O442       Eu888   2.359   1_545  S
O443      Eu1281   2.347       .  S
O443      Eu2989   2.368       .  S
O443       Eu470   2.352       .  S
C444       O2113   1.293       .  A
C444        C815   1.466       .  S
C445        C735   1.480       .  S
C446        C712   1.486       .  S
C447        C762   1.466       .  S
H448        O449   0.966       .  S
O449      Eu1281   2.357       .  S
O449       Eu470   2.331       .  S
H450        O451   0.968       .  S
O451      Eu2149   2.362       .  S
O452       Eu468   2.549       .  S
O452        C475   1.305       .  A
O453       Eu469   2.502       .  S
O454       Eu470   2.547       .  S
O454        C477   1.304       .  A
O455       Eu471   2.591       .  S
O455        C478   1.314       .  A
O456       Eu471   2.537       .  S
O456       C1739   1.305       .  A
O457      Eu2150   2.532   1_455  S
O457        C480   1.303       .  A
O458       Eu472   2.563       .  S
O458        C481   1.307       .  A
O459      Eu1312   2.597   1_645  S
O459       C2162   1.314       .  A
O460      Eu2150   2.322   1_455  S
O461       Eu471   2.448       .  S
O461        C482   1.284       .  A
O462        C477   1.288       .  A
O463      Eu1309   2.444       .  S
O463        C480   1.289       .  A
O464       Eu469   2.456       .  S
O464        C479   1.292       .  A
O465       Eu468   2.358       .  S
O465       C1318   1.271       .  A
O466      Eu2152   2.349       .  S
O466        C475   1.274       .  A
O467       Eu472   2.394       .  S
O467       C1316   1.274       .  A
Eu468       O862   2.358       .  S
Eu468       O486   2.363       .  S
Eu469      O1303   2.436   1_545  S
Eu469      O2963   2.370   1_545  S
Eu469      O2131   2.359   1_455  S
Eu469      O1324   2.349   1_545  S
Eu470      O2137   2.527       .  S
Eu470      O2140   2.340       .  S
Eu470      O2164   2.371       .  S
Eu470       O474   2.352       .  S
Eu471      O2153   2.376       .  S
Eu471      O1326   2.341   1_545  S
Eu472      O1299   2.583       .  S
Eu472      O2146   2.345   1_455  S
Eu472      O1313   2.342       .  S
Eu472      O2166   2.347   1_455  S
Eu472      O1734   2.364   1_455  S
O473      Eu2151   2.375   1_455  S
O473      Eu1312   2.344   1_545  S
O474      Eu1732   2.365   1_556  S
C475        C702   1.474       .  S
C476       O1307   1.281   1_545  A
C476        C742   1.495       .  S
C477        C772   1.535       .  S
C478       O1305   1.268   1_545  A
C478        C752   1.505       .  S
C479       O1716   1.304   1_456  A
C479        C782   1.508       .  S
C480        C725   1.493       .  S
C481        C792   1.502       .  S
C482       O2139   1.313       .  A
C482        C802   1.562       .  S
H483        O484   0.965       .  S
O484      Eu1309   2.339       .  S
O484      Eu2150   2.373   1_455  S
H485        O486   0.964       .  S
O486      Eu1311   2.345       .  S
O486      Eu2152   2.343       .  S
C487        C488   1.511       .  S
C487        C493   1.535       .  S
C487        C491   1.545       .  S
C487        C695   1.532       .  S
C488        H495   1.081       .  S
C488        C489   1.346       .  D
C489       C1330   1.565   1_545  S
C489        C745   1.485       .  S
C490       C1329   1.563       .  S
C490       C1334   1.563       .  S
C490        C492   1.543       .  S
C490        H496   1.099       .  S
C491        H497   1.086       .  S
C491       C1332   1.374   1_545  D
C492       C1331   1.376       .  D
C492        C682   1.518       .  S
C493        H498   1.084       .  S
C493        C494   1.367       .  D
C494       C1330   1.570   1_545  S
C494        C755   1.520       .  S
O499       Eu535   2.533       .  S
O499        C510   1.302       .  A
O500       Eu534   2.511       .  S
O500        C511   1.296       .  A
O501       Eu507   2.514       .  S
O501        C512   1.298       .  A
O502       Eu507   2.480       .  S
O502        C513   1.292       .  A
O503       Eu537   2.408       .  S
O503        C513   1.272       .  A
O504       Eu536   2.434       .  S
O504        C512   1.288       .  A
O505       Eu507   2.394       .  S
O505        C511   1.281       .  A
O506       Eu507   2.340       .  S
O506        C510   1.272       .  A
Eu507       O517   2.365       .  S
Eu507       O509   2.342       .  S
Eu507       O508   2.327       .  S
Eu507       O515   2.330       .  S
O508       Eu537   2.356       .  S
O508       Eu534   2.327       .  S
O509       Eu535   2.346       .  S
O509       Eu536   2.335       .  S
C510        C832   1.463       .  S
C511        C612   1.495       .  S
C512        C672   1.500       .  S
C513        C692   1.480       .  S
H514        O515   0.969       .  S
O515       Eu536   2.356       .  S
O515       Eu534   2.356       .  S
H516        O517   0.966       .  S
O517       Eu535   2.329       .  S
O517       Eu537   2.363       .  S
O518       Eu534   2.474       .  S
O518        C541   1.293       .  A
O519       Eu535   2.505       .  S
O519        C542   1.298       .  A
O520       Eu536   2.550       .  S
O520        C543   1.304       .  A
O521       Eu537   2.516       .  S
O521        C544   1.301       .  A
O522       Eu537   2.551       .  S
O522        C545   1.306       .  A
O523       Eu536   2.575       .  S
O523        C546   1.306       .  A
O524       Eu538   2.544       .  S
O524        C547   1.304       .  A
O525       Eu538   2.553       .  S
O525        C548   1.307       .  A
O526       Eu536   2.366       .  S
O526        C547   1.270       .  A
O527       Eu537   2.463       .  S
O527        C548   1.292       .  A
O528       Eu534   2.410       .  S
O528        C543   1.281       .  A
O529       Eu535   2.411       .  S
O529        C546   1.272       .  A
O530       Eu535   2.418       .  S
O530        C545   1.284       .  A
O531       Eu534   2.413       .  S
O531        C544   1.282       .  A
O532       Eu538   2.420       .  S
O532        C541   1.286       .  A
O533       Eu538   2.459       .  S
O533        C542   1.293       .  A
Eu534       O552   2.381       .  S
Eu534       O540   2.361       .  S
Eu535       O539   2.368       .  S
Eu535       O550   2.341       .  S
Eu536       O550   2.338       .  S
Eu536       O540   2.373       .  S
Eu537       O539   2.354       .  S
Eu537       O552   2.364       .  S
Eu538       O539   2.361       .  S
Eu538       O550   2.349       .  S
Eu538       O552   2.370       .  S
Eu538       O540   2.366       .  S
C541        C662   1.467       .  S
C542        C622   1.490       .  S
C543        C685   1.493       .  S
C544        C632   1.480       .  S
C545        C652   1.514       .  S
C546        C602   1.529       .  S
C547        C645   1.487       .  S
C548        C825   1.514       .  S
H549        O550   0.960       .  S
H551        O552   0.979       .  S
C553        C559   1.530       .  S
C553        C557   1.555       .  S
C553        C785   1.580       .  S
C554        H561   1.085       .  S
C554        C555   1.367       .  D
C555        C615   1.500       .  S
C556        C560   1.558       .  S
C556        C558   1.536       .  S
C556        H562   1.108       .  S
C557        H563   1.083   1_556  S
C557        C558   1.376       .  D
C558        C795   1.491       .  S
C559        H564   1.086       .  S
C559        C560   1.377       .  D
C560        C605   1.521       .  S
C565        C566   1.508       .  S
C565        C571   1.542       .  S
C565        C569   1.566       .  S
C565        C715   1.544       .  S
C566       H2253   1.087       .  S
C566        C567   1.352       .  D
C567        C568   1.559       .  S
C567       C2355   1.493       .  S
C568        C572   1.538       .  S
C568        C570   1.534       .  S
C568        H574   1.088       .  S
C569        H575   1.068       .  S
C569        C570   1.380       .  D
C570        C705   1.519       .  S
C571        H576   1.086       .  S
C571        C572   1.366       .  D
C572        C665   1.516       .  S
H573       C2246   1.087       .  S
C577        C578   1.505       .  S
C577        C581   1.550       .  S
C577        C765   1.531       .  S
C578        H585   1.088       .  S
C578        C579   1.352       .  D
C579        C580   1.571       .  S
C579        C625   1.517       .  S
C580        C584   1.571   1_556  S
C580        C582   1.582       .  S
C580        H586   1.104       .  S
C581        H587   1.084       .  S
C581        C582   1.395       .  D
C582        C775   1.539       .  S
C583        H588   1.088       .  S
C589        C590   1.527       .  S
C589        C595   1.554       .  S
C589       C1433   1.544   1_545  S
C589        C655   1.568       .  S
C590        H597   1.087       .  S
C590       C1431   1.363       .  D
C591        C592   1.560       .  S
C591       C1430   1.363       .  D
C591        C732   1.496       .  S
C592        C596   1.549       .  S
C592        C594   1.534       .  S
C592        H598   1.101       .  S
C593       C1429   1.546       .  S
C593        H599   1.080       .  S
C593        C594   1.380       .  D
C594        C642   1.504       .  S
C595        H600   1.082       .  S
C595       C1436   1.368   1_545  D
C596       C1435   1.368       .  D
C596        C722   1.526       .  S
C601        C602   1.423       .  A
C601        C606   1.431       .  A
C601       Br608   1.930       .  S
C602        C603   1.438       .  A
C603        C604   1.406       .  A
C603       Br610   1.943       .  S
C604        C605   1.401       .  A
C604       Br609   1.940       .  S
C605        C606   1.420       .  A
C606       Br607   1.921       .  S
C611        C612   1.412       .  A
C611        C616   1.423       .  A
C611       Br618   1.927       .  S
C612        C613   1.410       .  A
C613        C614   1.395       .  A
C613       Br620   1.934       .  S
C614        C615   1.420       .  A
C614       Br619   1.948       .  S
C615        C616   1.420       .  A
C616       Br617   1.927       .  S
C621        C622   1.401       .  A
C621        C626   1.407       .  A
C621       Br628   1.931       .  S
C622        C623   1.410       .  A
C623        C624   1.415       .  A
C623       Br630   1.917       .  S
C624        C625   1.415       .  A
C624       Br629   1.923       .  S
C625        C626   1.428       .  A
C626       Br627   1.921       .  S
C631        C632   1.398       .  A
C631        C636   1.412       .  A
C631       Br638   1.926       .  S
C632        C633   1.410       .  A
C633        C634   1.414       .  A
C633       Br640   1.928       .  S
C634        C635   1.410       .  A
C634       Br639   1.918       .  S
C635        C636   1.427       .  A
C636       Br637   1.932       .  S
C641        C642   1.433       .  A
C641        C646   1.409       .  A
C641       Br648   1.926       .  S
C642        C643   1.413       .  A
C643        C644   1.395       .  A
C643       Br650   1.942       .  S
C644        C645   1.426       .  A
C644       Br649   1.939       .  S
C645        C646   1.403       .  A
C646       Br647   1.931       .  S
C651        C652   1.413       .  A
C651        C656   1.427       .  A
C651       Br658   1.930       .  S
C652        C653   1.419       .  A
C653        C654   1.403       .  A
C653       Br660   1.936       .  S
C654        C655   1.418       .  A
C654       Br659   1.938       .  S
C655        C656   1.435       .  A
C656       Br657   1.928       .  S
C661        C662   1.399       .  A
C661        C666   1.392       .  A
C661       Br668   1.921       .  S
C662        C663   1.401       .  A
C663        C664   1.413       .  A
C663       Br670   1.924       .  S
C664        C665   1.428       .  A
C664       Br669   1.925       .  S
C665        C666   1.426       .  A
C666       Br667   1.937       .  S
C671        C672   1.416       .  A
C671        C676   1.405       .  A
C671       Br678   1.927       .  S
C672        C673   1.414       .  A
C673        C674   1.416       .  A
C673       Br680   1.917       .  S
C674        C675   1.409       .  A
C674       Br679   1.925   1_455  S
C675       C2247   1.489       .  S
C675        C676   1.410       .  A
C676       Br677   1.938       .  S
C681        C682   1.417       .  A
C681        C686   1.411       .  A
C681       Br688   1.926       .  S
C682        C683   1.427       .  A
C683        C684   1.417       .  A
C683       Br690   1.929       .  S
C684        C685   1.411       .  A
C684       Br689   1.935       .  S
C685        C686   1.404       .  A
C686       Br687   1.913       .  S
C691        C692   1.424       .  A
C691        C696   1.387       .  A
C691       Br698   1.937       .  S
C692        C693   1.413       .  A
C693        C694   1.409       .  A
C693       Br700   1.929       .  S
C694        C695   1.416       .  A
C694       Br699   1.932       .  S
C695        C696   1.393       .  A
C696       Br697   1.918       .  S
C701        C702   1.406       .  A
C701        C706   1.406       .  A
C701       Br708   1.931       .  S
C702        C703   1.408       .  A
C703        C704   1.418       .  A
C703       Br710   1.935       .  S
C704        C705   1.430       .  A
C704       Br709   1.929       .  S
C705        C706   1.419       .  A
C706       Br707   1.936       .  S
C711        C712   1.402       .  A
C711        C716   1.399       .  A
C711      Br2398   1.922       .  S
C712        C713   1.407       .  A
C713        C714   1.413       .  A
C713       Br720   1.922       .  S
C714        C715   1.424       .  A
C714       Br719   1.930       .  S
C715        C716   1.422       .  A
C716      Br2397   1.941       .  S
Br717      C2396   1.942       .  S
Br718      C2391   1.920       .  S
C721        C722   1.421       .  A
C721        C726   1.419       .  A
C721       Br728   1.925       .  S
C722       C1563   1.428       .  A
C723       C1562   1.429       .  A
C723       C1564   1.416       .  A
C723       Br730   1.918       .  S
C724       C1563   1.416       .  A
C724        C725   1.400       .  A
C724      Br1569   1.929       .  S
C725        C726   1.409       .  A
C726       Br727   1.929       .  S
Br729      C1564   1.930       .  S
C731        C732   1.418       .  A
C731        C736   1.403       .  A
C731       Br738   1.928       .  S
C732        C733   1.410       .  A
C733        C734   1.413       .  A
C733      Br1580   1.927       .  S
C734        C735   1.412       .  A
C734       Br739   1.915       .  S
C735        C736   1.403       .  A
C736       Br737   1.932       .  S
Br740      C1573   1.926       .  S
C741        C742   1.412       .  A
C741        C746   1.396   1_545  A
C741       Br748   1.932       .  S
C742       C1583   1.413       .  A
C743       C1582   1.420       .  A
C743       C1584   1.417       .  A
C744       C1583   1.416       .  A
C744        C745   1.419       .  A
C744      Br1589   1.926       .  S
C745        C746   1.417   1_545  A
C746       Br747   1.942       .  S
Br749      C1584   1.932       .  S
C751        C752   1.403       .  A
C751        C756   1.414       .  A
C751       Br758   1.922       .  S
C752        C753   1.433   1_545  A
C753        C754   1.407       .  A
C753      Br1180   1.941       .  S
C754        C755   1.413   1_565  A
C754      Br1599   1.933       .  S
C755        C756   1.431       .  A
C756       Br757   1.929       .  S
Br759      C1594   1.934       .  S
Br760      C1173   1.941       .  S
C761        C762   1.400       .  A
C761        C766   1.382       .  A
C761       Br768   1.934   1_556  S
C762        C763   1.410       .  A
C763        C764   1.415       .  A
C763       Br770   1.919       .  S
C764        C765   1.417       .  A
C764       Br769   1.924       .  S
C765        C766   1.431       .  A
C766       Br767   1.947       .  S
C771        C772   1.423       .  A
C771        C776   1.419       .  A
C771       Br778   1.943   1_556  S
C772        C773   1.419       .  A
C773        C774   1.427       .  A
C773       Br780   1.925       .  S
C774        C775   1.427       .  A
C774       Br779   1.933       .  S
C775        C776   1.424       .  A
C776       Br777   1.930   1_556  S
C781        C782   1.409       .  A
C781        C786   1.424       .  A
C781      Br2468   1.934   1_455  S
C782        C783   1.410   1_556  A
C783        C784   1.416   1_554  A
C784        C785   1.435       .  A
C785        C786   1.434       .  A
C786       Br787   1.926       .  S
Br788      C2461   1.934       .  S
C791        C792   1.405       .  A
C791        C796   1.408       .  A
C791       Br798   1.916       .  S
C793        C794   1.397       .  A
C793       Br800   1.954       .  S
C794        C795   1.400       .  A
C794       Br799   1.939       .  S
C796       Br797   1.902       .  S
C801        C802   1.441       .  A
C801        C806   1.429       .  A
C801       Br808   1.941       .  S
C802       C2483   1.425       .  A
C803       C2482   1.420       .  A
C803        C804   1.431       .  A
C803       Br810   1.936   1_645  S
C804       C2485   1.433       .  A
C804       Br809   1.909   1_655  S
C805       C2484   1.435       .  A
C805        C806   1.417       .  A
C806       Br807   1.935       .  S
C811       C2492   1.446       .  A
C811        C816   1.410   1_655  A
C811       Br818   1.936       .  S
C812       C2491   1.444       .  A
C812        C813   1.432       .  A
C813        C814   1.410       .  A
C813       Br820   1.919       .  S
C814        C815   1.389       .  A
C814       Br819   1.919       .  S
C815       C2496   1.388       .  A
C816       C2495   1.386       .  A
C816       Br817   1.933       .  S
C821        C822   1.431       .  A
C821        C826   1.417       .  A
C821       Br828   1.935       .  S
C822        C823   1.427       .  A
C823        C824   1.430       .  A
C823       Br830   1.923       .  S
C824        C825   1.411       .  A
C824       Br829   1.920       .  S
C825        C826   1.405       .  A
C826       Br827   1.928       .  S
C831        C832   1.404       .  A
C831        C836   1.410       .  A
C831       Br838   1.934       .  S
C832        C833   1.406       .  A
C833        C834   1.410       .  A
C833       Br840   1.927       .  S
C834        C835   1.414       .  A
C834       Br839   1.922       .  S
C835        C836   1.421       .  A
C836       Br837   1.924       .  S
C841        C842   1.534       .  S
C841       C2527   1.488       .  S
C841        C845   1.567       .  S
C841       C1232   1.553       .  S
C842        H849   1.081       .  S
C842        C843   1.373       .  D
C843       C2524   1.585       .  S
C843       C1242   1.546       .  S
C844       C2523   1.584       .  S
C844        C848   1.564   1_655  S
C844       C2526   1.578       .  S
C844        H850   1.104       .  S
C845        H851   1.083       .  S
C845        C846   1.392       .  D
C846       C2524   1.579       .  S
C846       C1225   1.564       .  S
C847       C2521   1.488   1_455  S
C847        H852   1.093       .  S
C847        C848   1.333       .  D
C848       C1255   1.484       .  S
O853       Eu889   2.481       .  S
O853       C2544   1.293       .  A
O854      Eu1308   2.533       .  S
O854        C865   1.300       .  A
O855        C866   1.293       .  A
O856       Eu861   2.467       .  S
O856        C867   1.291       .  A
O857      Eu1311   2.417       .  S
O857        C867   1.285       .  A
O858       Eu890   2.437       .  S
O858        C866   1.288       .  A
O859        C865   1.281   1_545  A
O860       Eu861   2.419       .  S
O860        C864   1.284       .  A
Eu861       O871   2.350       .  S
Eu861       O862   2.353       .  S
O862      Eu1311   2.349       .  S
O863      Eu1729   2.370   1_565  S
O863       Eu890   2.356       .  S
C864       O2533   1.292       .  A
C864       C1235   1.462       .  S
C865       C1155   1.486       .  S
C866       C1132   1.487       .  S
C867       C1182   1.470       .  S
H868        O869   0.966       .  S
O869       Eu890   2.332       .  S
O869      Eu1308   2.351       .  S
H870        O871   0.968       .  S
O871      Eu2569   2.363       .  S
O871      Eu1311   2.371       .  S
O872       Eu888   2.539   1_554  S
O872        C895   1.303       .  A
O873       Eu889   2.509       .  S
O873       C1316   1.295       .  A
O874       Eu890   2.550       .  S
O874        C897   1.304       .  A
O875       Eu891   2.577       .  S
O875        C898   1.312       .  A
O876       Eu891   2.534       .  S
O876       C2999   1.304   1_554  A
O877      Eu2570   2.529   1_455  S
O877        C900   1.303       .  A
O878       Eu892   2.559       .  S
O878        C901   1.307   1_554  A
O879       C2582   1.314       .  A
O880      Eu2570   2.328   1_455  S
O880       C1321   1.262       .  A
O881       Eu891   2.444       .  S
O881        C902   1.284       .  A
O882      Eu1308   2.442       .  S
O882        C897   1.287       .  A
O883        C900   1.289       .  A
O884       Eu889   2.452       .  S
O884        C899   1.291       .  A
O885       Eu888   2.357   1_554  S
O886      Eu2572   2.355       .  S
O886        C895   1.275       .  A
O887       Eu892   2.402       .  S
Eu888      O1274   2.520       .  S
Eu888      O1302   2.449       .  S
Eu888      O1289   2.354       .  S
Eu888       O906   2.363   1_556  S
Eu888      O1314   2.316       .  S
Eu889      O1703   2.373       .  S
Eu889      O2551   2.360   1_455  S
Eu889      O1313   2.367       .  S
Eu890      O2557   2.524       .  S
Eu890      O2560   2.342       .  S
Eu890      O2584   2.373       .  S
Eu890       O894   2.350       .  S
Eu891      O1277   2.422   1_554  S
Eu891      O1282   2.348   1_554  S
Eu891      O1291   2.369   1_554  S
Eu891      O2573   2.375       .  S
Eu892      O2566   2.360   1_455  S
Eu892      O1324   2.347   1_554  S
Eu892      O2586   2.347   1_455  S
Eu892      O2994   2.363   1_454  S
O893      Eu1309   2.367   1_554  S
O893      Eu2571   2.377   1_455  S
O894      Eu1308   2.318       .  S
O894      Eu2992   2.366       .  S
C895       C1122   1.472       .  S
C896       O1293   1.295   1_554  A
C896       C1162   1.501       .  S
C897       C1192   1.534       .  S
C898       C1172   1.502       .  S
C899       O2976   1.304   1_455  A
C899       C1202   1.507       .  S
C900       C1145   1.493       .  S
C901       O1300   1.265       .  A
C901       C1212   1.499       .  S
C902       O2559   1.311       .  A
C902       C1222   1.559       .  S
H903        O904   0.965       .  S
O904      Eu2570   2.375   1_455  S
O904      Eu1312   2.344       .  S
H905        O906   0.964       .  S
O906      Eu2572   2.342       .  S
C907        C908   1.511       .  S
C907        C913   1.537       .  S
C907        C911   1.546       .  S
C907       C1115   1.534       .  S
C908        H915   1.079       .  S
C908        C909   1.347       .  D
C909       C1165   1.482       .  S
C910        C912   1.543       .  S
C910        H916   1.099       .  S
C911        H917   1.086       .  S
C912       C1102   1.518       .  S
C913        H918   1.084       .  S
C913        C914   1.365       .  D
C914       C1175   1.514       .  S
O919       Eu955   2.539       .  S
O919        C930   1.304       .  A
O920       Eu954   2.510       .  S
O920        C931   1.296       .  A
O921       Eu927   2.512       .  S
O921        C932   1.298       .  A
O922       Eu927   2.482       .  S
O922        C933   1.293       .  A
O923       Eu957   2.406       .  S
O923        C933   1.273       .  A
O924       Eu956   2.430       .  S
O924        C932   1.287       .  A
O925       Eu927   2.400       .  S
O925        C931   1.282       .  A
O926       Eu927   2.347       .  S
O926        C930   1.273       .  A
Eu927       O937   2.362       .  S
Eu927       O929   2.344       .  S
Eu927       O928   2.329       .  S
Eu927       O935   2.332       .  S
O928       Eu957   2.357       .  S
O928       Eu954   2.332       .  S
O929       Eu955   2.343       .  S
O929       Eu956   2.333       .  S
C930       C1252   1.467       .  S
C931       C1032   1.497       .  S
C932       C1092   1.498       .  S
C933       C1112   1.484       .  S
H934        O935   0.969       .  S
O935       Eu956   2.357       .  S
O935       Eu954   2.357       .  S
H936        O937   0.966       .  S
O937       Eu955   2.329       .  S
O937       Eu957   2.362       .  S
O938       Eu954   2.476       .  S
O938        C961   1.293       .  A
O939       Eu955   2.507       .  S
O939        C962   1.298       .  A
O940       Eu956   2.544       .  S
O940        C963   1.302       .  A
O941       Eu957   2.517       .  S
O941        C964   1.301       .  A
O942       Eu957   2.549       .  S
O942        C965   1.305       .  A
O943       Eu956   2.574       .  S
O943        C966   1.305       .  A
O944       Eu958   2.542       .  S
O944        C967   1.304       .  A
O945       Eu958   2.546       .  S
O945        C968   1.306       .  A
O946       Eu956   2.361       .  S
O946        C967   1.269       .  A
O947       Eu957   2.466       .  S
O947        C968   1.292       .  A
O948       Eu954   2.410       .  S
O948        C963   1.281       .  A
O949       Eu955   2.414       .  S
O949        C966   1.271       .  A
O950       Eu955   2.411       .  S
O950        C965   1.284       .  A
O951       Eu954   2.411       .  S
O951        C964   1.282       .  A
O952       Eu958   2.423       .  S
O952        C961   1.286       .  A
O953       Eu958   2.460       .  S
O953        C962   1.294       .  A
Eu954       O972   2.380       .  S
Eu954       O960   2.360       .  S
Eu955       O959   2.369       .  S
Eu955       O970   2.343       .  S
Eu956       O970   2.339       .  S
Eu956       O960   2.372       .  S
Eu957       O959   2.351       .  S
Eu957       O972   2.362       .  S
Eu958       O959   2.360       .  S
Eu958       O970   2.350       .  S
Eu958       O972   2.369       .  S
Eu958       O960   2.363       .  S
C961       C1082   1.468       .  S
C962       C1042   1.493       .  S
C963       C1105   1.491       .  S
C964       C1052   1.480       .  S
C965       C1072   1.511       .  S
C966       C1022   1.528       .  S
C967       C1065   1.485       .  S
C968       C1245   1.512       .  S
H969        O970   0.960       .  S
H971        O972   0.979       .  S
C973       C1394   1.541       .  S
C973        C979   1.530       .  S
C973        C977   1.556       .  S
C973       C1205   1.579       .  S
C974       C1393   1.542   1_554  S
C974        H981   1.084       .  S
C974        C975   1.367       .  D
C975       C1396   1.546   1_554  S
C975       C1035   1.503       .  S
C976       C1395   1.545       .  S
C976        C980   1.557       .  S
C976        C978   1.537       .  S
C976        H982   1.107       .  S
C977        H983   1.083       .  S
C977        C978   1.377       .  D
C978       C1215   1.495       .  S
C979        H984   1.086       .  S
C979        C980   1.377       .  D
C980       C1025   1.519       .  S
C985        C986   1.507       .  S
C985        C991   1.542       .  S
C985        C989   1.566       .  S
C985       C1135   1.543       .  S
C986       H2673   1.087       .  S
C986        C987   1.352       .  D
C987        C988   1.560       .  S
C987       C2775   1.492       .  S
C988        C992   1.538       .  S
C988        C990   1.534       .  S
C988        H994   1.087       .  S
C989        H995   1.068       .  S
C989        C990   1.381       .  D
C990       C1125   1.520       .  S
C991        H996   1.086       .  S
C991        C992   1.365       .  D
C992       C1085   1.516       .  S
H993       C2666   1.087       .  S
C997        C998   1.506       .  S
C997       C1423   1.514       .  S
C997       C1001   1.550       .  S
C997       C1185   1.533       .  S
C998       H1005   1.088       .  S
C998        C999   1.353       .  D
C999       C1000   1.571       .  S
C999       C1045   1.517       .  S
C1000      C1004   1.572       .  S
C1000      C1002   1.581       .  S
C1000      H1006   1.105       .  S
C1001      H1007   1.084       .  S
C1001      C1002   1.395       .  D
C1002      C1195   1.538       .  S
C1003      C1417   1.513       .  S
C1003      H1008   1.088   1_556  S
C1003      C1424   1.340   1_556  D
C1004      C1423   1.341       .  D
C1004      C1475   1.503       .  S
C1009      C1010   1.526       .  S
C1009      C1015   1.553       .  S
C1009      C1075   1.567       .  S
C1010      H1017   1.087       .  S
C1011      C1012   1.562   1_545  S
C1011      C1152   1.500   1_545  S
C1012      C1016   1.552       .  S
C1012      C1014   1.534       .  S
C1012      H1018   1.101       .  S
C1013      H1019   1.081       .  S
C1013      C1014   1.378       .  D
C1014      C1062   1.500       .  S
C1015      H1020   1.081       .  S
C1016      C1142   1.531       .  S
C1021      C1022   1.423       .  A
C1021      C1026   1.430       .  A
C1021     Br1028   1.929       .  S
C1022      C1023   1.438       .  A
C1023      C1024   1.406       .  A
C1023     Br1030   1.942       .  S
C1024      C1025   1.401       .  A
C1024     Br1029   1.940       .  S
C1025      C1026   1.419       .  A
C1026     Br1027   1.921       .  S
C1031      C1032   1.413       .  A
C1031      C1036   1.424       .  A
C1031     Br1038   1.927       .  S
C1032      C1033   1.409       .  A
C1033      C1034   1.395       .  A
C1033     Br1040   1.936       .  S
C1034      C1035   1.421       .  A
C1034     Br1039   1.950       .  S
C1035      C1036   1.422       .  A
C1036     Br1037   1.928   1_554  S
C1041      C1042   1.403       .  A
C1041      C1046   1.409       .  A
C1041     Br1048   1.930       .  S
C1042      C1043   1.410       .  A
C1043      C1044   1.414       .  A
C1043     Br1050   1.918       .  S
C1044      C1045   1.415       .  A
C1044     Br1049   1.923       .  S
C1045      C1046   1.427       .  A
C1046     Br1047   1.922       .  S
C1051      C1052   1.398       .  A
C1051      C1056   1.412       .  A
C1051     Br1058   1.927       .  S
C1052      C1053   1.410       .  A
C1053      C1054   1.413       .  A
C1053     Br1060   1.927       .  S
C1054      C1055   1.410       .  A
C1054     Br1059   1.921       .  S
C1055      C1424   1.502       .  S
C1055      C1056   1.428       .  A
C1056     Br1057   1.932       .  S
C1061      C1062   1.431       .  A
C1061      C1066   1.407       .  A
C1061     Br1068   1.925       .  S
C1062      C1063   1.413       .  A
C1063      C1064   1.395       .  A
C1063     Br1070   1.943       .  S
C1064      C1065   1.427       .  A
C1064     Br1069   1.939       .  S
C1065      C1066   1.403       .  A
C1066     Br1067   1.932       .  S
C1071      C1072   1.413       .  A
C1071      C1076   1.427       .  A
C1071     Br1078   1.931       .  S
C1072      C1073   1.418       .  A
C1073      C1074   1.401       .  A
C1073     Br1080   1.936       .  S
C1074      C1075   1.419       .  A
C1074     Br1079   1.939       .  S
C1075      C1076   1.436       .  A
C1076     Br1077   1.929       .  S
C1081      C1082   1.399       .  A
C1081      C1086   1.392       .  A
C1081     Br1088   1.918       .  S
C1082      C1083   1.400       .  A
C1083      C1084   1.413       .  A
C1083     Br1090   1.923       .  S
C1084      C1085   1.428       .  A
C1084     Br1089   1.925       .  S
C1085      C1086   1.426       .  A
C1086     Br1087   1.937       .  S
C1091      C1092   1.417       .  A
C1091      C1096   1.404       .  A
C1091     Br1098   1.927       .  S
C1092      C1093   1.414       .  A
C1093      C1094   1.415       .  A
C1093     Br1100   1.918       .  S
C1094      C1095   1.409       .  A
C1094     Br1099   1.924   1_455  S
C1095      C2667   1.488       .  S
C1095      C1096   1.409       .  A
C1096     Br1097   1.938       .  S
C1101      C1102   1.417       .  A
C1101      C1106   1.410       .  A
C1101     Br1108   1.926       .  S
C1102      C1103   1.427       .  A
C1103      C1104   1.417       .  A
C1103     Br1110   1.928       .  S
C1104      C1105   1.409       .  A
C1104     Br1109   1.936       .  S
C1105      C1106   1.403       .  A
C1106     Br1107   1.912       .  S
C1111      C1112   1.424       .  A
C1111      C1116   1.387       .  A
C1111     Br1118   1.939       .  S
C1112      C1113   1.416       .  A
C1113      C1114   1.412       .  A
C1113     Br1120   1.930       .  S
C1114      C1115   1.418       .  A
C1114     Br1119   1.934       .  S
C1115      C1116   1.393       .  A
C1116     Br1117   1.919       .  S
C1121      C1122   1.404       .  A
C1121      C1126   1.406       .  A
C1121     Br1128   1.931       .  S
C1122      C1123   1.406       .  A
C1123      C1124   1.418       .  A
C1123     Br1130   1.935       .  S
C1124      C1125   1.431       .  A
C1124     Br1129   1.929       .  S
C1125      C1126   1.420       .  A
C1126     Br1127   1.937       .  S
C1131      C1132   1.404       .  A
C1131      C1136   1.399       .  A
C1131     Br2818   1.923       .  S
C1132      C1133   1.407       .  A
C1133      C1134   1.413       .  A
C1133     Br1140   1.923   1_565  S
C1134      C1135   1.423       .  A
C1134     Br1139   1.931       .  S
C1135      C1136   1.422       .  A
C1136     Br2817   1.942       .  S
Br1137     C2816   1.943       .  S
Br1138     C2811   1.922       .  S
C1141      C1142   1.423       .  A
C1141      C1146   1.421       .  A
C1141     Br1148   1.925       .  S
C1143     Br1150   1.919       .  S
C1144      C1145   1.398       .  A
C1145      C1146   1.408       .  A
C1146     Br1147   1.930       .  S
C1151      C1152   1.419       .  A
C1151      C1156   1.405       .  A
C1151     Br1158   1.927       .  S
C1152      C1153   1.410   1_565  A
C1153      C1154   1.415       .  A
C1154      C1155   1.413   1_545  A
C1154     Br1159   1.917       .  S
C1155      C1156   1.406       .  A
C1156     Br1157   1.934       .  S
C1161      C1162   1.422       .  A
C1161      C1166   1.398       .  A
C1161     Br1168   1.939       .  S
C1163     Br1590   1.930   1_554  S
C1164      C1165   1.417       .  A
C1165      C1166   1.413       .  A
C1166     Br1167   1.945       .  S
Br1170     C1583   1.928       .  S
C1171      C1172   1.404       .  A
C1171      C1176   1.413       .  A
C1171     Br1178   1.924       .  S
C1172      C1173   1.433       .  A
C1173      C1174   1.403       .  A
C1174      C1175   1.411       .  A
C1175      C1176   1.430       .  A
C1176     Br1177   1.929       .  S
C1181      C1182   1.403       .  A
C1181      C1186   1.383       .  A
C1181     Br1188   1.934       .  S
C1182      C1183   1.411       .  A
C1183      C1184   1.416       .  A
C1183     Br1190   1.919       .  S
C1184      C1185   1.417       .  A
C1184     Br1189   1.924       .  S
C1185      C1186   1.431       .  A
C1186     Br1187   1.947       .  S
C1191      C1192   1.425       .  A
C1191      C1196   1.419       .  A
C1191     Br1198   1.944       .  S
C1192      C1193   1.418       .  A
C1193      C1194   1.426       .  A
C1193     Br1200   1.926       .  S
C1194      C1195   1.426       .  A
C1194     Br1199   1.931       .  S
C1195      C1196   1.424       .  A
C1196     Br1197   1.931       .  S
C1201      C1202   1.410       .  A
C1201      C1206   1.425       .  A
C1201     Br2888   1.934   1_455  S
C1202      C1203   1.410       .  A
C1203      C1204   1.414       .  A
C1203     Br1630   1.937       .  S
C1204      C1205   1.432       .  A
C1204     Br1629   1.939       .  S
C1205      C1206   1.433       .  A
C1206     Br1207   1.924       .  S
Br1208     C2881   1.934       .  S
Br1209     C1624   1.938       .  S
Br1210     C1623   1.937       .  S
C1211      C1212   1.403   1_554  A
C1211      C1216   1.408       .  A
C1211     Br1218   1.917       .  S
C1212      C1633   1.434       .  A
C1213      C1632   1.434       .  A
C1213      C1214   1.394       .  A
C1213     Br1220   1.951       .  S
C1214      C1215   1.401       .  A
C1214     Br1219   1.934       .  S
C1215      C1636   1.424       .  A
C1216      C1635   1.416   1_554  A
C1216     Br1217   1.898       .  S
C1221      C1222   1.441       .  A
C1221      C1226   1.427       .  A
C1221     Br1228   1.942       .  S
C1222      C2903   1.425       .  A
C1223      C2902   1.420       .  A
C1223      C1224   1.432       .  A
C1223     Br1230   1.932   1_655  S
C1224      C2905   1.434       .  A
C1224     Br1229   1.912   1_655  S
C1225      C2904   1.434       .  A
C1225      C1226   1.417       .  A
C1226     Br1227   1.934       .  S
C1231      C2912   1.446       .  A
C1231      C1236   1.411   1_655  A
C1231     Br1238   1.939       .  S
C1232      C2911   1.445       .  A
C1232      C1233   1.432       .  A
C1233      C1234   1.408       .  A
C1233     Br1240   1.916       .  S
C1234      C1235   1.387       .  A
C1234     Br1239   1.919       .  S
C1235      C2916   1.387       .  A
C1236      C2915   1.388       .  A
C1236     Br1237   1.933       .  S
C1241      C1242   1.433       .  A
C1241      C1246   1.417       .  A
C1241     Br1248   1.936       .  S
C1242      C1243   1.428       .  A
C1243      C1244   1.430       .  A
C1243     Br1250   1.923       .  S
C1244      C1245   1.410       .  A
C1244     Br1249   1.920       .  S
C1245      C1246   1.404       .  A
C1246     Br1247   1.929       .  S
C1251      C1252   1.404       .  A
C1251      C1256   1.410       .  A
C1251     Br1258   1.933       .  S
C1252      C1253   1.406       .  A
C1253      C1254   1.410       .  A
C1253     Br1260   1.926       .  S
C1254      C1255   1.414       .  A
C1254     Br1259   1.923       .  S
C1255      C1256   1.420       .  A
C1256     Br1257   1.925       .  S
C1261      C1262   1.532       .  S
C1261      C2947   1.488       .  S
C1261      C1265   1.567       .  S
C1261      C1652   1.552       .  S
C1262      H1269   1.082       .  S
C1262      C1263   1.372       .  D
C1263      C2944   1.586       .  S
C1263      C1662   1.544       .  S
C1264      C2943   1.587       .  S
C1264      C1268   1.565   1_655  S
C1264      C2946   1.581       .  S
C1264      H1270   1.105       .  S
C1265      H1271   1.083       .  S
C1265      C1266   1.393       .  D
C1266      C2944   1.580       .  S
C1266      C1645   1.566       .  S
C1267      C2941   1.488   1_455  S
C1267      H1272   1.092       .  S
C1267      C1268   1.336       .  D
C1268      C1675   1.483       .  S
O1273     Eu1309   2.469       .  S
O1273      C2964   1.291       .  A
O1274      C1285   1.299       .  A
O1275      C1286   1.293       .  A
O1276     Eu1281   2.456       .  S
O1276      C1287   1.288       .  A
O1277      C1287   1.286       .  A
O1278     Eu1310   2.434       .  S
O1278      C1286   1.288       .  A
O1279      C1285   1.282   1_545  A
O1280     Eu1281   2.414       .  S
O1280      C1284   1.283       .  A
Eu1281     O1291   2.351       .  S
Eu1281     O1282   2.351       .  S
O1283     Eu2149   2.370   1_565  S
O1283     Eu1310   2.353       .  S
C1284      O2953   1.292       .  A
C1284      C1655   1.463       .  S
C1285      C1575   1.480       .  S
C1286      C1552   1.485       .  S
C1287      C1602   1.467       .  S
H1288      O1289   0.966       .  S
O1289     Eu1310   2.331       .  S
H1290      O1291   0.968       .  S
O1291     Eu2989   2.362       .  S
O1292     Eu1308   2.541       .  S
O1292      C1315   1.303       .  A
O1293     Eu1309   2.505       .  S
O1294     Eu1310   2.550       .  S
O1294      C1317   1.304       .  A
O1295     Eu1311   2.585       .  S
O1295      C1318   1.313       .  A
O1296     Eu1311   2.540       .  S
O1296      C2579   1.305       .  A
O1297     Eu2990   2.526   1_455  S
O1297      C1320   1.302       .  A
O1298     Eu1312   2.547       .  S
O1298      C1321   1.304       .  A
O1299      C3002   1.311   1_455  A
O1300     Eu2990   2.345   1_455  S
O1301     Eu1311   2.447       .  S
O1301      C1322   1.284       .  A
O1302      C1317   1.288       .  A
O1303      C1320   1.287       .  A
O1304     Eu1309   2.450       .  S
O1304      C1319   1.290       .  A
O1305     Eu1308   2.348       .  S
O1306     Eu2992   2.354       .  S
O1306      C1315   1.275       .  A
O1307     Eu1312   2.398       .  S
Eu1308     O1326   2.364       .  S
Eu1309     O2123   2.375       .  S
Eu1309     O2971   2.358   1_455  S
Eu1310     O2977   2.530       .  S
Eu1310     O2980   2.332       .  S
Eu1310     O3004   2.369       .  S
Eu1310     O1314   2.353       .  S
Eu1311     O2993   2.375       .  S
Eu1312     O2986   2.339   1_455  S
Eu1312     O3006   2.342   1_455  S
Eu1312     O2574   2.370   1_455  S
O1313     Eu2991   2.373   1_455  S
O1314     Eu2572   2.364   1_556  S
C1315      C1542   1.472       .  S
C1316      C1582   1.512       .  S
C1317      C1612   1.535       .  S
C1318      C1592   1.505       .  S
C1319      O2556   1.305   1_456  A
C1319      C1622   1.509       .  S
C1320      C1565   1.488       .  S
C1321      C1632   1.501       .  S
C1322      O2979   1.312       .  A
C1322      C1642   1.563       .  S
H1323      O1324   0.965       .  S
O1324     Eu2990   2.377   1_455  S
H1325      O1326   0.964       .  S
O1326     Eu2992   2.345       .  S
C1327      C1328   1.515       .  S
C1327      C1333   1.539       .  S
C1327      C1331   1.546       .  S
C1327      C1535   1.533       .  S
C1328      H1335   1.079       .  S
C1328      C1329   1.344       .  D
C1329      C1585   1.480       .  S
C1330      C1332   1.540       .  S
C1330      H1336   1.098       .  S
C1331      H1337   1.086       .  S
C1332      C1522   1.512       .  S
C1333      H1338   1.084       .  S
C1333      C1334   1.365       .  D
C1334      C1595   1.516       .  S
O1339     Eu1375   2.534       .  S
O1339      C1350   1.303       .  A
O1340     Eu1374   2.510       .  S
O1340      C1351   1.296       .  A
O1341     Eu1347   2.512       .  S
O1341      C1352   1.298       .  A
O1342     Eu1347   2.474       .  S
O1342      C1353   1.292       .  A
O1343     Eu1377   2.409       .  S
O1343      C1353   1.272       .  A
O1344     Eu1376   2.425       .  S
O1344      C1352   1.286       .  A
O1345     Eu1347   2.397       .  S
O1345      C1351   1.282       .  A
O1346     Eu1347   2.340       .  S
O1346      C1350   1.272       .  A
Eu1347     O1357   2.366       .  S
Eu1347     O1349   2.341       .  S
Eu1347     O1348   2.325       .  S
Eu1347     O1355   2.328       .  S
O1348     Eu1377   2.355       .  S
O1348     Eu1374   2.325       .  S
O1349     Eu1375   2.343       .  S
O1349     Eu1376   2.331       .  S
C1350      C1672   1.464       .  S
C1351      C1452   1.496       .  S
C1352      C1512   1.497       .  S
C1353      C1532   1.477       .  S
H1354      O1355   0.969       .  S
O1355     Eu1376   2.356       .  S
O1355     Eu1374   2.354       .  S
H1356      O1357   0.966       .  S
O1357     Eu1375   2.333       .  S
O1357     Eu1377   2.365       .  S
O1358     Eu1374   2.469       .  S
O1358      C1381   1.292       .  A
O1359     Eu1375   2.506       .  S
O1359      C1382   1.298       .  A
O1360     Eu1376   2.536       .  S
O1360      C1383   1.301       .  A
O1361     Eu1377   2.518       .  S
O1361      C1384   1.301       .  A
O1362     Eu1377   2.550       .  S
O1362      C1385   1.305       .  A
O1363     Eu1376   2.562       .  S
O1363      C1386   1.303       .  A
O1364     Eu1378   2.540       .  S
O1364      C1387   1.304       .  A
O1365     Eu1378   2.548       .  S
O1365      C1388   1.306       .  A
O1366     Eu1376   2.359       .  S
O1366      C1387   1.269       .  A
O1367     Eu1377   2.464       .  S
O1367      C1388   1.292       .  A
O1368     Eu1374   2.409       .  S
O1368      C1383   1.281       .  A
O1369     Eu1375   2.417       .  S
O1369      C1386   1.271       .  A
O1370     Eu1375   2.416       .  S
O1370      C1385   1.285       .  A
O1371     Eu1374   2.410       .  S
O1371      C1384   1.281       .  A
O1372     Eu1378   2.426       .  S
O1372      C1381   1.286       .  A
O1373     Eu1378   2.467       .  S
O1373      C1382   1.295       .  A
Eu1374     O1392   2.383       .  S
Eu1374     O1380   2.360       .  S
Eu1375     O1379   2.370       .  S
Eu1375     O1390   2.343       .  S
Eu1376     O1390   2.338       .  S
Eu1376     O1380   2.368       .  S
Eu1377     O1379   2.353       .  S
Eu1377     O1392   2.363       .  S
Eu1378     O1379   2.359       .  S
Eu1378     O1390   2.348       .  S
Eu1378     O1392   2.371       .  S
Eu1378     O1380   2.364       .  S
C1381      C1502   1.466       .  S
C1382      C1462   1.494       .  S
C1383      C1525   1.488       .  S
C1384      C1472   1.480       .  S
C1385      C1492   1.513       .  S
C1386      C1442   1.527       .  S
C1387      C1485   1.486       .  S
C1388      C1665   1.512       .  S
H1389      O1390   0.960       .  S
H1391      O1392   0.979       .  S
C1393      C1399   1.531       .  S
C1393      C1397   1.555       .  S
C1393      C1625   1.579       .  S
C1394      H1401   1.085       .  S
C1394      C1395   1.367       .  D
C1395      C1455   1.499       .  S
C1396      C1400   1.559       .  S
C1396      C1398   1.537       .  S
C1396      H1402   1.106       .  S
C1397      H1403   1.083   1_556  S
C1397      C1398   1.372       .  D
C1398      C1635   1.491       .  S
C1399      H1404   1.086       .  S
C1399      C1400   1.378       .  D
C1400      C1445   1.522       .  S
C1405      C1406   1.508       .  S
C1405      C1411   1.541       .  S
C1405      C1409   1.566       .  S
C1405      C1555   1.544       .  S
C1406      H3093   1.087       .  S
C1406      C1407   1.352       .  D
C1407      C1408   1.559       .  S
C1407      C3195   1.493       .  S
C1408      C1412   1.537       .  S
C1408      C1410   1.534       .  S
C1408      H1414   1.087       .  S
C1409      H1415   1.068       .  S
C1409      C1410   1.382       .  D
C1410      C1545   1.519       .  S
C1411      H1416   1.086       .  S
C1411      C1412   1.366       .  D
C1412      C1505   1.514       .  S
H1413      C3086   1.087       .  S
C1417      C1418   1.505       .  S
C1417      C1421   1.550       .  S
C1417      C1605   1.531       .  S
C1418      H1425   1.088       .  S
C1418      C1419   1.351       .  D
C1419      C1420   1.572       .  S
C1419      C1465   1.518       .  S
C1420      C1424   1.572   1_556  S
C1420      C1422   1.580       .  S
C1420      H1426   1.105       .  S
C1421      H1427   1.084       .  S
C1421      C1422   1.395       .  D
C1422      C1615   1.537       .  S
C1423      H1428   1.088       .  S
C1429      C1430   1.526       .  S
C1429      C1435   1.553       .  S
C1429      C1495   1.567       .  S
C1430      H1437   1.087       .  S
C1431      C1432   1.562   1_545  S
C1431      C1572   1.500   1_545  S
C1432      C1436   1.551       .  S
C1432      C1434   1.534       .  S
C1432      H1438   1.103       .  S
C1433      H1439   1.080       .  S
C1433      C1434   1.378       .  D
C1434      C1482   1.501       .  S
C1435      H1440   1.081       .  S
C1436      C1562   1.526       .  S
C1441      C1442   1.424       .  A
C1441      C1446   1.431       .  A
C1441     Br1448   1.930       .  S
C1442      C1443   1.437       .  A
C1443      C1444   1.405       .  A
C1443     Br1450   1.943       .  S
C1444      C1445   1.402       .  A
C1444     Br1449   1.937       .  S
C1445      C1446   1.420       .  A
C1446     Br1447   1.923       .  S
C1451      C1452   1.414       .  A
C1451      C1456   1.423       .  A
C1451     Br1458   1.927       .  S
C1452      C1453   1.411       .  A
C1453      C1454   1.395       .  A
C1453     Br1460   1.935       .  S
C1454      C1455   1.420       .  A
C1454     Br1459   1.945       .  S
C1455      C1456   1.420       .  A
C1456     Br1457   1.928       .  S
C1461      C1462   1.403       .  A
C1461      C1466   1.409       .  A
C1461     Br1468   1.931       .  S
C1462      C1463   1.410       .  A
C1463      C1464   1.415       .  A
C1463     Br1470   1.917       .  S
C1464      C1465   1.415       .  A
C1464     Br1469   1.923       .  S
C1465      C1466   1.428       .  A
C1466     Br1467   1.922       .  S
C1471      C1472   1.398       .  A
C1471      C1476   1.412       .  A
C1471     Br1478   1.926       .  S
C1472      C1473   1.410       .  A
C1473      C1474   1.414       .  A
C1473     Br1480   1.928       .  S
C1474      C1475   1.411       .  A
C1474     Br1479   1.918       .  S
C1475      C1476   1.427       .  A
C1476     Br1477   1.932       .  S
C1481      C1482   1.432       .  A
C1481      C1486   1.409       .  A
C1481     Br1488   1.925       .  S
C1482      C1483   1.413       .  A
C1483      C1484   1.393       .  A
C1483     Br1490   1.944       .  S
C1484      C1485   1.427       .  A
C1484     Br1489   1.939       .  S
C1485      C1486   1.403       .  A
C1486     Br1487   1.932       .  S
C1491      C1492   1.414       .  A
C1491      C1496   1.428       .  A
C1491     Br1498   1.929       .  S
C1492      C1493   1.417       .  A
C1493      C1494   1.402       .  A
C1493     Br1500   1.935       .  S
C1494      C1495   1.418       .  A
C1494     Br1499   1.938       .  S
C1495      C1496   1.435       .  A
C1496     Br1497   1.930       .  S
C1501      C1502   1.399       .  A
C1501      C1506   1.390       .  A
C1501     Br1508   1.919       .  S
C1502      C1503   1.401       .  A
C1503      C1504   1.413       .  A
C1503     Br1510   1.923       .  S
C1504      C1505   1.428       .  A
C1504     Br1509   1.925       .  S
C1505      C1506   1.424       .  A
C1506     Br1507   1.935       .  S
C1511      C1512   1.417       .  A
C1511      C1516   1.404       .  A
C1511     Br1518   1.927       .  S
C1512      C1513   1.413       .  A
C1513      C1514   1.415       .  A
C1513     Br1520   1.917       .  S
C1514      C1515   1.409       .  A
C1514     Br1519   1.925   1_455  S
C1515      C3087   1.488       .  S
C1515      C1516   1.410       .  A
C1516     Br1517   1.937       .  S
C1521      C1522   1.416       .  A
C1521      C1526   1.409       .  A
C1521     Br1528   1.926       .  S
C1522      C1523   1.425       .  A
C1523      C1524   1.415       .  A
C1523     Br1530   1.929       .  S
C1524      C1525   1.409       .  A
C1524     Br1529   1.935       .  S
C1525      C1526   1.404       .  A
C1526     Br1527   1.913       .  S
C1531      C1532   1.422       .  A
C1531      C1536   1.389       .  A
C1531     Br1538   1.937       .  S
C1532      C1533   1.410       .  A
C1533      C1534   1.407       .  A
C1533     Br1540   1.928       .  S
C1534      C1535   1.416       .  A
C1534     Br1539   1.933       .  S
C1535      C1536   1.396       .  A
C1536     Br1537   1.918       .  S
C1541      C1542   1.404       .  A
C1541      C1546   1.405       .  A
C1541     Br1548   1.931       .  S
C1542      C1543   1.408       .  A
C1543      C1544   1.418       .  A
C1543     Br1550   1.936       .  S
C1544      C1545   1.431       .  A
C1544     Br1549   1.929       .  S
C1545      C1546   1.420       .  A
C1546     Br1547   1.936       .  S
C1551      C1552   1.402       .  A
C1551      C1556   1.399       .  A
C1551     Br3238   1.923       .  S
C1552      C1553   1.406       .  A
C1553      C1554   1.413       .  A
C1553     Br1560   1.922   1_565  S
C1554      C1555   1.424       .  A
C1554     Br1559   1.930       .  S
C1555      C1556   1.423       .  A
C1556     Br3237   1.942       .  S
Br1557     C3236   1.942       .  S
Br1558     C3231   1.922       .  S
C1561      C1562   1.420       .  A
C1561      C1566   1.417       .  A
C1561     Br1568   1.922       .  S
C1563     Br1570   1.920       .  S
C1564      C1565   1.398       .  A
C1565      C1566   1.407       .  A
C1566     Br1567   1.928       .  S
C1571      C1572   1.420       .  A
C1571      C1576   1.404       .  A
C1571     Br1578   1.926       .  S
C1572      C1573   1.411   1_565  A
C1573      C1574   1.413       .  A
C1574      C1575   1.411   1_545  A
C1574     Br1579   1.918       .  S
C1575      C1576   1.404       .  A
C1576     Br1577   1.933       .  S
C1581      C1582   1.431       .  A
C1581      C1586   1.394       .  A
C1581     Br1588   1.937       .  S
C1584      C1585   1.415       .  A
C1585      C1586   1.406       .  A
C1586     Br1587   1.948       .  S
C1591      C1592   1.405       .  A
C1591      C1596   1.416       .  A
C1591     Br1598   1.923       .  S
C1592      C1593   1.431       .  A
C1593      C1594   1.405       .  A
C1594      C1595   1.411       .  A
C1595      C1596   1.430       .  A
C1596     Br1597   1.929       .  S
C1601      C1602   1.400       .  A
C1601      C1606   1.383       .  A
C1601     Br1608   1.933   1_556  S
C1602      C1603   1.410       .  A
C1603      C1604   1.415       .  A
C1603     Br1610   1.920       .  S
C1604      C1605   1.417       .  A
C1604     Br1609   1.925       .  S
C1605      C1606   1.432       .  A
C1606     Br1607   1.948       .  S
C1611      C1612   1.423       .  A
C1611      C1616   1.418       .  A
C1611     Br1618   1.942   1_556  S
C1612      C1613   1.419       .  A
C1613      C1614   1.426       .  A
C1613     Br1620   1.923       .  S
C1614      C1615   1.426       .  A
C1614     Br1619   1.933       .  S
C1615      C1616   1.424       .  A
C1616     Br1617   1.930   1_556  S
C1621      C1622   1.411       .  A
C1621      C1626   1.427       .  A
C1621     Br3308   1.933   1_455  S
C1622      C1623   1.411   1_556  A
C1623      C1624   1.414   1_554  A
C1624      C1625   1.431       .  A
C1625      C1626   1.435       .  A
C1626     Br1627   1.931       .  S
Br1628     C3301   1.934       .  S
C1631      C1632   1.407       .  A
C1631      C1636   1.415       .  A
C1631     Br1638   1.935       .  S
C1633      C1634   1.400       .  A
C1633     Br1640   1.944       .  S
C1634      C1635   1.400       .  A
C1634     Br1639   1.936       .  S
C1636     Br1637   1.904       .  S
C1641      C1642   1.442       .  A
C1641      C1646   1.429       .  A
C1641     Br1648   1.942       .  S
C1642      C3323   1.425       .  A
C1643      C3322   1.425   1_455  A
C1643      C1644   1.438       .  A
C1643     Br1650   1.938       .  S
C1644      C3325   1.435   1_455  A
C1644     Br1649   1.914       .  S
C1645      C3324   1.434       .  A
C1645      C1646   1.418       .  A
C1646     Br1647   1.935       .  S
C1651      C3332   1.445   1_655  A
C1651      C1656   1.410   1_655  A
C1651     Br1658   1.937       .  S
C1652      C3331   1.444       .  A
C1652      C1653   1.431       .  A
C1653      C1654   1.408       .  A
C1653     Br1660   1.918       .  S
C1654      C1655   1.389       .  A
C1654     Br1659   1.918       .  S
C1655      C3336   1.388       .  A
C1656      C3335   1.386       .  A
C1656     Br1657   1.933       .  S
C1661      C1662   1.432       .  A
C1661      C1666   1.417       .  A
C1661     Br1668   1.936       .  S
C1662      C1663   1.427       .  A
C1663      C1664   1.429       .  A
C1663     Br1670   1.922       .  S
C1664      C1665   1.411       .  A
C1664     Br1669   1.920       .  S
C1665      C1666   1.404       .  A
C1666     Br1667   1.928       .  S
C1671      C1672   1.404       .  A
C1671      C1676   1.411       .  A
C1671     Br1678   1.933       .  S
C1672      C1673   1.407       .  A
C1673      C1674   1.408       .  A
C1673     Br1680   1.925       .  S
C1674      C1675   1.410       .  A
C1674     Br1679   1.921       .  S
C1675      C1676   1.422       .  A
C1676     Br1677   1.924       .  S
C1681      C1682   1.532       .  S
C1681      C1685   1.569       .  S
C1681      C2072   1.555       .  S
C1682      H1689   1.081       .  S
C1682      C1683   1.373       .  D
C1683      C2082   1.545       .  S
C1684      C1688   1.560       .  S
C1684      H1690   1.104       .  S
C1685      H1691   1.083       .  S
C1685      C1686   1.395       .  D
C1686      C2065   1.566       .  S
C1687      H1692   1.092       .  S
C1687      C1688   1.337       .  D
C1688      C2095   1.479       .  S
O1693     Eu1729   2.479       .  S
O1694     Eu2148   2.535       .  S
O1694      C1705   1.301       .  A
O1695     Eu2541   2.498       .  S
O1695      C1706   1.296       .  A
O1696     Eu1701   2.465       .  S
O1696      C1707   1.290       .  A
O1697     Eu2151   2.414       .  S
O1697      C1707   1.285       .  A
O1698     Eu1730   2.432       .  S
O1698      C1706   1.287       .  A
O1699     Eu2541   2.394       .  S
O1699      C1705   1.280       .  A
O1700     Eu1701   2.416       .  S
O1700      C1704   1.284   1_655  A
Eu1701     O2535   2.481   1_545  S
Eu1701     O2539   2.394       .  S
Eu1701     O1711   2.345       .  S
Eu1701     O2543   2.347   1_645  S
Eu1701     O1702   2.353       .  S
Eu1701     O2549   2.359   1_545  S
O1702     Eu2151   2.349       .  S
O1702     Eu2988   2.361   1_545  S
O1703     Eu2541   2.346   1_455  S
O1703     Eu1730   2.356   1_455  S
C1704      C2075   1.462       .  S
C1705      C1995   1.485       .  S
C1706      C1972   1.490       .  S
C1707      C2022   1.469       .  S
H1708      O1709   0.966       .  S
O1709     Eu2541   2.358       .  S
O1709     Eu1730   2.333       .  S
O1709     Eu2148   2.352       .  S
H1710      O1711   0.968       .  S
O1711     Eu2151   2.361       .  S
O1712     Eu1728   2.547   1_554  S
O1712      C1735   1.304       .  A
O1713     Eu1729   2.505       .  S
O1713      C2156   1.294       .  A
O1714     Eu1730   2.554       .  S
O1714      C1737   1.305       .  A
O1715     Eu1731   2.589       .  S
O1715      C1738   1.314       .  A
O1716     Eu1731   2.532       .  S
O1717      C1740   1.302       .  A
O1718     Eu1732   2.557       .  S
O1718      C1741   1.306       .  A
O1719     Eu2572   2.589   1_545  S
O1720      C2161   1.263       .  A
O1721     Eu1731   2.445       .  S
O1721      C1742   1.284       .  A
O1722     Eu2148   2.447       .  S
O1722      C1737   1.287       .  A
O1723     Eu2569   2.442       .  S
O1723      C1740   1.288       .  A
O1724     Eu1729   2.449       .  S
O1724      C1739   1.291       .  A
O1725     Eu1728   2.353   1_554  S
O1725      C2578   1.270       .  A
O1726      C1735   1.274       .  A
O1727     Eu1732   2.393       .  S
O1727      C2576   1.272       .  A
Eu1728     O2114   2.525       .  S
Eu1728     O2142   2.442       .  S
Eu1728     O2962   2.362       .  S
Eu1728     O2129   2.353       .  S
Eu1728     O1746   2.357   1_556  S
Eu1728     O2154   2.322       .  S
Eu1729     O2563   2.439   1_545  S
Eu1729     O2153   2.368       .  S
Eu1729     O2584   2.346   1_545  S
Eu1730     O1734   2.348       .  S
Eu1731     O2117   2.415   1_554  S
Eu1731     O2122   2.347   1_554  S
Eu1731     O2131   2.371   1_554  S
Eu1731     O2586   2.340   1_545  S
Eu1732     O2559   2.584       .  S
Eu1732     O2573   2.345       .  S
Eu1732     O2164   2.348   1_554  S
O1733     Eu2149   2.371   1_554  S
O1733     Eu2572   2.345   1_545  S
O1734     Eu2148   2.319       .  S
C1735      C1962   1.472       .  S
C1736      O2133   1.294   1_554  A
C1736      O2567   1.271   1_545  A
C1736      C2002   1.511       .  S
C1737      C2032   1.540       .  S
C1738      O2565   1.269   1_545  A
C1738      C2012   1.504       .  S
C1739      C2042   1.509       .  S
C1740      C1985   1.493       .  S
C1741      O2140   1.262   1_554  A
C1741      C2052   1.506       .  S
C1742      C2062   1.559       .  S
H1743      O1744   0.965       .  S
O1744     Eu2569   2.344       .  S
O1744     Eu2152   2.348       .  S
H1745      O1746   0.964       .  S
O1746     Eu2571   2.341       .  S
C1747      C1748   1.514       .  S
C1747      C1753   1.537       .  S
C1747      C1751   1.546       .  S
C1747      C1955   1.533       .  S
C1748      H1755   1.079       .  S
C1748      C1749   1.344       .  D
C1749      C2590   1.564   1_545  S
C1749      C2005   1.481       .  S
C1750      C2589   1.563       .  S
C1750      C2594   1.566       .  S
C1750      C1752   1.540       .  S
C1750      H1756   1.099       .  S
C1751      H1757   1.086       .  S
C1751      C2592   1.376   1_545  D
C1752      C2591   1.376       .  D
C1752      C1942   1.517       .  S
C1753      H1758   1.084       .  S
C1753      C1754   1.366       .  D
C1754      C2590   1.564   1_545  S
C1754      C2015   1.515       .  S
O1759     Eu1795   2.529       .  S
O1759      C1770   1.302       .  A
O1760     Eu1794   2.510       .  S
O1760      C1771   1.296       .  A
O1761     Eu1767   2.521       .  S
O1761      C1772   1.299       .  A
O1762     Eu1767   2.478       .  S
O1762      C1773   1.292       .  A
O1763     Eu1797   2.411       .  S
O1763      C1773   1.273       .  A
O1764     Eu1796   2.424       .  S
O1764      C1772   1.286       .  A
O1765     Eu1767   2.402       .  S
O1765      C1771   1.283       .  A
O1766     Eu1767   2.339       .  S
O1766      C1770   1.272       .  A
Eu1767     O1777   2.371       .  S
Eu1767     O1769   2.341       .  S
Eu1767     O1768   2.325       .  S
Eu1767     O1775   2.326       .  S
O1768     Eu1797   2.357       .  S
O1768     Eu1794   2.323       .  S
O1769     Eu1795   2.344       .  S
O1769     Eu1796   2.332       .  S
C1770      C2092   1.461       .  S
C1771      C1872   1.497       .  S
C1772      C1932   1.500       .  S
C1773      C1952   1.479       .  S
H1774      O1775   0.969       .  S
O1775     Eu1796   2.356       .  S
O1775     Eu1794   2.353       .  S
H1776      O1777   0.966       .  S
O1777     Eu1795   2.329       .  S
O1777     Eu1797   2.366       .  S
O1778     Eu1794   2.465       .  S
O1778      C1801   1.291       .  A
O1779     Eu1795   2.503       .  S
O1779      C1802   1.298       .  A
O1780     Eu1796   2.538       .  S
O1780      C1803   1.302       .  A
O1781     Eu1797   2.518       .  S
O1781      C1804   1.301       .  A
O1782     Eu1797   2.550       .  S
O1782      C1805   1.305       .  A
O1783     Eu1796   2.566       .  S
O1783      C1806   1.304       .  A
O1784     Eu1798   2.545       .  S
O1784      C1807   1.304       .  A
O1785     Eu1798   2.542       .  S
O1785      C1808   1.305       .  A
O1786     Eu1796   2.360       .  S
O1786      C1807   1.269       .  A
O1787     Eu1797   2.473       .  S
O1787      C1808   1.293       .  A
O1788     Eu1794   2.408       .  S
O1788      C1803   1.281       .  A
O1789     Eu1795   2.412       .  S
O1789      C1806   1.271       .  A
O1790     Eu1795   2.420       .  S
O1790      C1805   1.285       .  A
O1791     Eu1794   2.412       .  S
O1791      C1804   1.282       .  A
O1792     Eu1798   2.421       .  S
O1792      C1801   1.286       .  A
O1793     Eu1798   2.465       .  S
O1793      C1802   1.294       .  A
Eu1794     O1812   2.383       .  S
Eu1794     O1800   2.363       .  S
Eu1795     O1799   2.367       .  S
Eu1795     O1810   2.344       .  S
Eu1796     O1810   2.338       .  S
Eu1796     O1800   2.370       .  S
Eu1797     O1799   2.352       .  S
Eu1797     O1812   2.363       .  S
Eu1798     O1799   2.360       .  S
Eu1798     O1810   2.347       .  S
Eu1798     O1812   2.373       .  S
Eu1798     O1800   2.364       .  S
C1801      C1922   1.463       .  S
C1802      C1882   1.492       .  S
C1803      C1945   1.488       .  S
C1804      C1892   1.481       .  S
C1805      C1912   1.514       .  S
C1806      C1862   1.526       .  S
C1807      C1905   1.488       .  S
C1808      C2085   1.512       .  S
H1809      O1810   0.960       .  S
H1811      O1812   0.979       .  S
C1813      C2234   1.542       .  S
C1813      C1819   1.529       .  S
C1813      C1817   1.554       .  S
C1813      C2045   1.578       .  S
C1814      C2233   1.541   1_554  S
C1814      H1821   1.086       .  S
C1814      C1815   1.366       .  D
C1815      C2236   1.547   1_554  S
C1815      C1875   1.501       .  S
C1816      C2235   1.548       .  S
C1816      C1820   1.559       .  S
C1816      C1818   1.536       .  S
C1816      H1822   1.107       .  S
C1817      H1823   1.083       .  S
C1817      C1818   1.374       .  D
C1818      C2055   1.490       .  S
C1819      H1824   1.086       .  S
C1819      C1820   1.376       .  D
C1820      C1865   1.520       .  S
C1825      C1826   1.505   1_655  S
C1825      C1831   1.541       .  S
C1825      C1829   1.569       .  S
C1825      C1975   1.544       .  S
C1826      C1827   1.352       .  D
C1827      C1828   1.557   1_455  S
C1828      C1832   1.536       .  S
C1828      C1830   1.532       .  S
C1828      H1834   1.086       .  S
C1829      H1835   1.070       .  S
C1829      C1830   1.382       .  D
C1830      C1965   1.521       .  S
C1831      H1836   1.085       .  S
C1831      C1832   1.365       .  D
C1832      C1925   1.512       .  S
C1837      C1838   1.506       .  S
C1837      C2263   1.513       .  S
C1837      C1841   1.553       .  S
C1837      C2025   1.534       .  S
C1838      H1845   1.088       .  S
C1838      C1839   1.353       .  D
C1839      C1840   1.570       .  S
C1839      C1885   1.516       .  S
C1840      C1844   1.571       .  S
C1840      C1842   1.583       .  S
C1840      H1846   1.104       .  S
C1841      H1847   1.084       .  S
C1841      C1842   1.397       .  D
C1842      C2035   1.545       .  S
C1843      C2257   1.515       .  S
C1843      H1848   1.088   1_556  S
C1843      C2264   1.340       .  D
C1844      C2263   1.340       .  D
C1844      C2315   1.503       .  S
C1849      C1850   1.526       .  S
C1849      C1855   1.552       .  S
C1849      C2693   1.546   1_545  S
C1849      C1915   1.569       .  S
C1850      H1857   1.087       .  S
C1850      C2691   1.363       .  D
C1851      C1852   1.562       .  S
C1851      C2690   1.363       .  D
C1851      C1992   1.499       .  S
C1852      C1856   1.552       .  S
C1852      C1854   1.534       .  S
C1852      H1858   1.102       .  S
C1853      C2689   1.544       .  S
C1853      H1859   1.080       .  S
C1853      C1854   1.378       .  D
C1854      C1902   1.502       .  S
C1855      H1860   1.080       .  S
C1855      C2696   1.368   1_545  D
C1856      C2695   1.369       .  D
C1856      C1982   1.530       .  S
C1861      C1862   1.423       .  A
C1861      C1866   1.430       .  A
C1861     Br1868   1.931       .  S
C1862      C1863   1.437       .  A
C1863      C1864   1.405       .  A
C1863     Br1870   1.944       .  S
C1864      C1865   1.403       .  A
C1864     Br1869   1.938       .  S
C1865      C1866   1.420       .  A
C1866     Br1867   1.920       .  S
C1871      C1872   1.414       .  A
C1871      C1876   1.424       .  A
C1871     Br1878   1.926       .  S
C1872      C1873   1.410       .  A
C1873      C1874   1.396       .  A
C1873     Br1880   1.935       .  S
C1874      C1875   1.421       .  A
C1874     Br1879   1.944       .  S
C1875      C1876   1.419       .  A
C1876     Br1877   1.928   1_554  S
C1881      C1882   1.403       .  A
C1881      C1886   1.409       .  A
C1881     Br1888   1.930       .  S
C1882      C1883   1.410       .  A
C1883      C1884   1.414       .  A
C1883     Br1890   1.918       .  S
C1884      C1885   1.414       .  A
C1884     Br1889   1.923       .  S
C1885      C1886   1.426       .  A
C1886     Br1887   1.921       .  S
C1891      C1892   1.398       .  A
C1891      C1896   1.411       .  A
C1891     Br1898   1.926       .  S
C1892      C1893   1.411       .  A
C1893      C1894   1.415       .  A
C1893     Br1900   1.928       .  S
C1894      C1895   1.411       .  A
C1894     Br1899   1.920       .  S
C1895      C2264   1.502   1_554  S
C1895      C1896   1.425       .  A
C1896     Br1897   1.932       .  S
C1901      C1902   1.433       .  A
C1901      C1906   1.409       .  A
C1901     Br1908   1.926       .  S
C1902      C1903   1.413       .  A
C1903      C1904   1.394       .  A
C1903     Br1910   1.944       .  S
C1904      C1905   1.428       .  A
C1904     Br1909   1.940       .  S
C1905      C1906   1.403       .  A
C1906     Br1907   1.932       .  S
C1911      C1912   1.414       .  A
C1911      C1916   1.428       .  A
C1911     Br1918   1.930       .  S
C1912      C1913   1.417       .  A
C1913      C1914   1.403       .  A
C1913     Br1920   1.936       .  S
C1914      C1915   1.420       .  A
C1914     Br1919   1.938       .  S
C1915      C1916   1.436       .  A
C1916     Br1917   1.929       .  S
C1921      C1922   1.398       .  A
C1921      C1926   1.390       .  A
C1921     Br1928   1.921       .  S
C1922      C1923   1.399       .  A
C1923      C1924   1.411       .  A
C1923     Br1930   1.924       .  S
C1924      C1925   1.429       .  A
C1924     Br1929   1.928       .  S
C1925      C1926   1.429       .  A
C1926     Br1927   1.940       .  S
C1931      C1932   1.417       .  A
C1931      C1936   1.406       .  A
C1931     Br1938   1.927       .  S
C1932      C1933   1.413       .  A
C1933      C1934   1.415       .  A
C1933     Br1940   1.918       .  S
C1934      C1935   1.409       .  A
C1934     Br1939   1.923       .  S
C1935      C1936   1.411       .  A
C1936     Br1937   1.938       .  S
C1941      C1942   1.417       .  A
C1941      C1946   1.409       .  A
C1941     Br1948   1.926       .  S
C1942      C1943   1.429       .  A
C1943      C1944   1.417       .  A
C1943     Br1950   1.929       .  S
C1944      C1945   1.409       .  A
C1944     Br1949   1.936       .  S
C1945      C1946   1.402       .  A
C1946     Br1947   1.913       .  S
C1951      C1952   1.423       .  A
C1951      C1956   1.389       .  A
C1951     Br1958   1.937       .  S
C1952      C1953   1.412       .  A
C1953      C1954   1.408       .  A
C1953     Br1960   1.930       .  S
C1954      C1955   1.416       .  A
C1954     Br1959   1.934       .  S
C1955      C1956   1.395       .  A
C1956     Br1957   1.919       .  S
C1961      C1962   1.404       .  A
C1961      C1966   1.405       .  A
C1961     Br1968   1.935       .  S
C1962      C1963   1.407       .  A
C1963      C1964   1.418       .  A
C1963     Br1970   1.936       .  S
C1964      C1965   1.432       .  A
C1964     Br1969   1.929       .  S
C1965      C1966   1.424       .  A
C1966     Br1967   1.939   1_655  S
C1971      C1972   1.404       .  A
C1971      C1976   1.401       .  A
C1972      C1973   1.406       .  A
C1973      C1974   1.413       .  A
C1973     Br1980   1.915       .  S
C1974      C1975   1.421       .  A
C1974     Br1979   1.931   1_655  S
C1975      C1976   1.422       .  A
C1981      C1982   1.421       .  A
C1981      C1986   1.420       .  A
C1981     Br1988   1.925       .  S
C1982      C2823   1.430       .  A
C1983      C2822   1.430       .  A
C1983      C2824   1.415       .  A
C1983     Br1990   1.920       .  S
C1984      C2823   1.417       .  A
C1984      C1985   1.399       .  A
C1984     Br2829   1.931       .  S
C1985      C1986   1.409       .  A
C1986     Br1987   1.928       .  S
Br1989     C2824   1.931       .  S
C1991      C1992   1.419       .  A
C1991      C1996   1.405       .  A
C1991     Br1998   1.928       .  S
C1992      C1993   1.410       .  A
C1993      C1994   1.414       .  A
C1993     Br2840   1.929       .  S
C1994      C1995   1.413       .  A
C1994     Br1999   1.916       .  S
C1995      C1996   1.406       .  A
C1996     Br1997   1.935       .  S
Br2000     C2833   1.928       .  S
C2001      C2002   1.436   1_565  A
C2001      C2006   1.397       .  A
C2001     Br2008   1.948       .  S
C2002      C2843   1.422       .  A
C2003      C2842   1.422       .  A
C2003      C2844   1.416       .  A
C2003     Br2430   1.933   1_554  S
C2004      C2843   1.416       .  A
C2004      C2005   1.414       .  A
C2004     Br2849   1.933       .  S
C2005      C2006   1.408   1_545  A
C2006     Br2007   1.950       .  S
Br2009     C2844   1.933       .  S
Br2010     C2423   1.933       .  S
C2011      C2012   1.404       .  A
C2011      C2016   1.415       .  A
C2011     Br2018   1.925       .  S
C2012      C2013   1.432   1_545  A
C2013      C2014   1.404   1_565  A
C2013     Br3280   1.941       .  S
C2014      C2015   1.412       .  A
C2014     Br2859   1.936   1_545  S
C2015      C2016   1.431       .  A
C2016     Br2017   1.930       .  S
Br2019     C2854   1.937       .  S
Br2020     C3273   1.939       .  S
C2021      C2022   1.401       .  A
C2021      C2026   1.384       .  A
C2021     Br2028   1.934       .  S
C2022      C2023   1.411       .  A
C2023      C2024   1.416       .  A
C2023     Br2030   1.918       .  S
C2024      C2025   1.416       .  A
C2024     Br2029   1.925       .  S
C2025      C2026   1.431       .  A
C2026     Br2027   1.946       .  S
C2031      C2032   1.425       .  A
C2031      C2036   1.421       .  A
C2031     Br2038   1.945       .  S
C2032      C2033   1.419       .  A
C2033      C2034   1.429       .  A
C2033     Br2040   1.927       .  S
C2034      C2035   1.429       .  A
C2034     Br2039   1.932       .  S
C2035      C2036   1.426       .  A
C2036     Br2037   1.931       .  S
C2041      C2042   1.411       .  A
C2041      C2046   1.426       .  A
C2042      C2043   1.411       .  A
C2043      C2044   1.414       .  A
C2043     Br2470   1.937       .  S
C2044      C2045   1.431       .  A
C2044     Br2469   1.939       .  S
C2045      C2046   1.434       .  A
C2046     Br2047   1.929       .  S
Br2049     C2464   1.939       .  S
Br2050     C2463   1.937       .  S
C2051      C2052   1.407       .  A
C2051      C2056   1.408       .  A
C2051     Br2058   1.917       .  S
C2052      C2473   1.440   1_554  A
C2053      C2472   1.437       .  A
C2053      C2054   1.398       .  A
C2053     Br2060   1.949       .  S
C2054      C2055   1.400       .  A
C2054     Br2059   1.937       .  S
C2055      C2476   1.417       .  A
C2056      C2475   1.417   1_554  A
C2056     Br2057   1.906       .  S
C2061      C2062   1.441       .  A
C2061      C2066   1.430       .  A
C2061     Br2068   1.944       .  S
C2063      C2064   1.436       .  A
C2063     Br2070   1.937       .  S
C2064     Br2069   1.915       .  S
C2065      C2066   1.421       .  A
C2066     Br2067   1.936       .  S
C2071      C2076   1.410       .  A
C2071     Br2078   1.938       .  S
C2072      C2073   1.433   1_655  A
C2073      C2074   1.409       .  A
C2073     Br2080   1.916       .  S
C2074      C2075   1.386       .  A
C2074     Br2079   1.919       .  S
C2076     Br2077   1.932       .  S
C2081      C2082   1.433       .  A
C2081      C2086   1.417       .  A
C2081     Br2088   1.936       .  S
C2082      C2083   1.428       .  A
C2083      C2084   1.430       .  A
C2083     Br2090   1.923       .  S
C2084      C2085   1.410       .  A
C2084     Br2089   1.920       .  S
C2085      C2086   1.403       .  A
C2086     Br2087   1.928       .  S
C2091      C2092   1.404       .  A
C2091      C2096   1.409       .  A
C2091     Br2098   1.933       .  S
C2092      C2093   1.405       .  A
C2093      C2094   1.407       .  A
C2093     Br2100   1.924       .  S
C2094      C2095   1.410       .  A
C2094     Br2099   1.921       .  S
C2095      C2096   1.420       .  A
C2096     Br2097   1.924       .  S
C2101      C2102   1.536       .  S
C2101      C2105   1.568       .  S
C2101      C2492   1.557       .  S
C2102      H2109   1.082       .  S
C2102      C2103   1.375       .  D
C2103      C2502   1.547       .  S
C2104      C2108   1.562       .  S
C2104      H2110   1.105       .  S
C2105      H2111   1.083       .  S
C2105      C2106   1.394       .  D
C2106      C2485   1.563       .  S
C2107      H2112   1.092       .  S
C2107      C2108   1.337       .  D
C2108      C2515   1.480       .  S
O2113     Eu2149   2.480       .  S
O2114      C2125   1.299       .  A
O2115     Eu2961   2.483       .  S
O2115      C2126   1.293       .  A
O2116     Eu2121   2.468       .  S
O2116      C2127   1.291       .  A
O2117      C2127   1.285       .  A
O2118     Eu2150   2.433       .  S
O2118      C2126   1.288       .  A
O2119     Eu2961   2.402       .  S
O2119      C2125   1.281       .  A
O2120     Eu2121   2.410       .  S
O2120      C2124   1.283   1_655  A
Eu2121     O2955   2.489   1_545  S
Eu2121     O2959   2.393       .  S
Eu2121     O2131   2.348       .  S
Eu2121     O2963   2.343   1_645  S
Eu2121     O2122   2.353       .  S
Eu2121     O2969   2.358   1_545  S
O2122     Eu2568   2.356   1_545  S
O2123     Eu2961   2.345   1_455  S
O2123     Eu2150   2.350   1_455  S
C2124      C2495   1.461       .  S
C2125      C2415   1.483       .  S
C2126      C2392   1.485       .  S
C2127      C2442   1.470       .  S
H2128      O2129   0.966       .  S
O2129     Eu2961   2.357       .  S
O2129     Eu2150   2.328       .  S
H2130      O2131   0.967       .  S
O2132     Eu2148   2.540       .  S
O2132      C2155   1.303       .  A
O2133     Eu2149   2.502       .  S
O2134     Eu2150   2.564       .  S
O2134      C2157   1.306       .  A
O2135     Eu2151   2.571       .  S
O2135      C2158   1.311       .  A
O2136     Eu2151   2.542       .  S
O2137      C2160   1.302       .  A
O2138     Eu2152   2.555       .  S
O2138      C2161   1.305       .  A
O2139     Eu2992   2.590   1_545  S
O2141     Eu2151   2.432       .  S
O2141      C2162   1.282       .  A
O2142      C2157   1.287       .  A
O2143     Eu2989   2.438       .  S
O2143      C2160   1.287       .  A
O2144     Eu2149   2.449       .  S
O2144      C2159   1.290       .  A
O2145     Eu2148   2.351       .  S
O2145      C2998   1.270       .  A
O2146      C2155   1.274       .  A
O2147     Eu2152   2.388       .  S
O2147      C2996   1.271       .  A
Eu2148     O2542   2.354       .  S
Eu2148     O2166   2.368       .  S
Eu2149     O2983   2.443   1_545  S
Eu2149     O3004   2.346   1_545  S
Eu2150     O2154   2.358       .  S
Eu2151     O3006   2.342   1_545  S
Eu2152     O2979   2.590       .  S
Eu2152     O2993   2.344       .  S
O2153     Eu2992   2.343   1_545  S
C2155      C2382   1.468       .  S
C2156      O2987   1.274   1_545  A
C2156      C2422   1.512       .  S
C2157      C2452   1.539       .  S
C2158      O2985   1.270   1_545  A
C2158      C2432   1.494       .  S
C2159      C2462   1.510       .  S
C2160      C2405   1.491       .  S
C2161      C2472   1.504       .  S
C2162      C2482   1.555       .  S
H2163      O2164   0.965       .  S
O2164     Eu2989   2.344       .  S
H2165      O2166   0.964       .  S
O2166     Eu2991   2.341       .  S
C2167      C2168   1.515       .  S
C2167      C2173   1.537       .  S
C2167      C2171   1.546       .  S
C2167      C2375   1.533       .  S
C2168      H2175   1.079       .  S
C2168      C2169   1.343       .  D
C2169      C3010   1.563   1_545  S
C2169      C2425   1.480       .  S
C2170      C3009   1.562       .  S
C2170      C3014   1.563       .  S
C2170      C2172   1.540       .  S
C2170      H2176   1.099       .  S
C2171      H2177   1.086       .  S
C2171      C3012   1.375   1_545  D
C2172      C3011   1.377       .  D
C2172      C2362   1.517       .  S
C2173      H2178   1.084       .  S
C2173      C2174   1.365       .  D
C2174      C3010   1.563   1_545  S
C2174      C2435   1.512       .  S
O2179     Eu2215   2.526       .  S
O2179      C2190   1.301       .  A
O2180     Eu2214   2.511       .  S
O2180      C2191   1.296       .  A
O2181     Eu2187   2.524       .  S
O2181      C2192   1.300       .  A
O2182     Eu2187   2.479       .  S
O2182      C2193   1.293       .  A
O2183     Eu2217   2.413       .  S
O2183      C2193   1.273       .  A
O2184     Eu2216   2.422       .  S
O2184      C2192   1.286       .  A
O2185     Eu2187   2.402       .  S
O2185      C2191   1.283       .  A
O2186     Eu2187   2.342       .  S
O2186      C2190   1.272       .  A
Eu2187     O2197   2.371       .  S
Eu2187     O2189   2.340       .  S
Eu2187     O2188   2.327       .  S
Eu2187     O2195   2.325       .  S
O2188     Eu2217   2.356       .  S
O2188     Eu2214   2.323       .  S
O2189     Eu2215   2.342       .  S
O2189     Eu2216   2.331       .  S
C2190      C2512   1.462       .  S
C2191      C2292   1.498       .  S
C2192      C2352   1.500       .  S
C2193      C2372   1.479       .  S
H2194      O2195   0.969       .  S
O2195     Eu2216   2.358       .  S
O2195     Eu2214   2.356       .  S
H2196      O2197   0.966       .  S
O2197     Eu2215   2.331       .  S
O2197     Eu2217   2.367       .  S
O2198     Eu2214   2.471       .  S
O2198      C2221   1.292       .  A
O2199     Eu2215   2.498       .  S
O2199      C2222   1.297       .  A
O2200     Eu2216   2.535       .  S
O2200      C2223   1.301       .  A
O2201     Eu2217   2.517       .  S
O2201      C2224   1.301       .  A
O2202     Eu2217   2.550       .  S
O2202      C2225   1.305       .  A
O2203     Eu2216   2.566       .  S
O2203      C2226   1.304       .  A
O2204     Eu2218   2.544       .  S
O2204      C2227   1.304       .  A
O2205     Eu2218   2.544       .  S
O2205      C2228   1.305       .  A
O2206     Eu2216   2.365       .  S
O2206      C2227   1.269       .  A
O2207     Eu2217   2.469       .  S
O2207      C2228   1.293       .  A
O2208     Eu2214   2.404       .  S
O2208      C2223   1.280       .  A
O2209     Eu2215   2.412       .  S
O2209      C2226   1.271       .  A
O2210     Eu2215   2.417       .  S
O2210      C2225   1.284       .  A
O2211     Eu2214   2.415       .  S
O2211      C2224   1.282       .  A
O2212     Eu2218   2.416       .  S
O2212      C2221   1.285       .  A
O2213     Eu2218   2.461       .  S
O2213      C2222   1.294       .  A
Eu2214     O2232   2.378       .  S
Eu2214     O2220   2.363       .  S
Eu2215     O2219   2.367       .  S
Eu2215     O2230   2.344       .  S
Eu2216     O2230   2.336       .  S
Eu2216     O2220   2.370       .  S
Eu2217     O2219   2.353       .  S
Eu2217     O2232   2.362       .  S
Eu2218     O2219   2.360       .  S
Eu2218     O2230   2.347       .  S
Eu2218     O2232   2.371       .  S
Eu2218     O2220   2.364       .  S
C2221      C2342   1.464       .  S
C2222      C2302   1.488       .  S
C2223      C2365   1.485       .  S
C2224      C2312   1.482       .  S
C2225      C2332   1.514       .  S
C2226      C2282   1.526       .  S
C2227      C2325   1.490       .  S
C2228      C2505   1.512       .  S
H2229      O2230   0.960       .  S
H2231      O2232   0.979       .  S
C2233      C2239   1.531       .  S
C2233      C2237   1.553       .  S
C2233      C2465   1.578       .  S
C2234      H2241   1.086       .  S
C2234      C2235   1.367       .  D
C2235      C2295   1.503       .  S
C2236      C2240   1.558       .  S
C2236      C2238   1.535       .  S
C2236      H2242   1.108       .  S
C2237      H2243   1.083   1_556  S
C2237      C2238   1.375       .  D
C2238      C2475   1.489       .  S
C2239      H2244   1.086       .  S
C2239      C2240   1.377       .  D
C2240      C2285   1.521       .  S
C2245      C2246   1.507   1_655  S
C2245      C2251   1.543       .  S
C2245      C2249   1.564       .  S
C2245      C2395   1.543       .  S
C2246      C2247   1.352       .  D
C2247      C2248   1.557   1_455  S
C2248      C2252   1.534       .  S
C2248      C2250   1.533       .  S
C2248      H2254   1.083       .  S
C2249      H2255   1.066       .  S
C2249      C2250   1.381       .  D
C2250      C2385   1.519       .  S
C2251      H2256   1.086       .  S
C2251      C2252   1.367       .  D
C2252      C2345   1.515       .  S
C2257      C2258   1.506       .  S
C2257      C2261   1.551       .  S
C2257      C2445   1.533       .  S
C2258      H2265   1.088       .  S
C2258      C2259   1.353       .  D
C2259      C2260   1.568       .  S
C2259      C2305   1.513       .  S
C2260      C2264   1.569       .  S
C2260      C2262   1.581       .  S
C2260      H2266   1.104       .  S
C2261      H2267   1.084       .  S
C2261      C2262   1.396       .  D
C2262      C2455   1.540       .  S
C2263      H2268   1.088       .  S
C2269      C2270   1.525       .  S
C2269      C2275   1.555       .  S
C2269      C3113   1.543   1_545  S
C2269      C2335   1.570       .  S
C2270      H2277   1.087       .  S
C2270      C3111   1.363       .  D
C2271      C2272   1.562       .  S
C2271      C3110   1.364       .  D
C2271      C2412   1.498       .  S
C2272      C2276   1.552       .  S
C2272      C2274   1.535       .  S
C2272      H2278   1.103       .  S
C2273      C3109   1.544       .  S
C2273      H2279   1.080       .  S
C2273      C2274   1.379       .  D
C2274      C2322   1.504       .  S
C2275      H2280   1.081       .  S
C2275      C3116   1.370   1_545  D
C2276      C3115   1.369       .  D
C2276      C2402   1.528       .  S
C2281      C2282   1.422       .  A
C2281      C2286   1.430       .  A
C2281     Br2288   1.931       .  S
C2282      C2283   1.437       .  A
C2283      C2284   1.405       .  A
C2283     Br2290   1.943       .  S
C2284      C2285   1.402       .  A
C2284     Br2289   1.938       .  S
C2285      C2286   1.421       .  A
C2286     Br2287   1.920       .  S
C2291      C2292   1.414       .  A
C2291      C2296   1.425       .  A
C2291     Br2298   1.926       .  S
C2292      C2293   1.410       .  A
C2293      C2294   1.396       .  A
C2293     Br2300   1.936       .  S
C2294      C2295   1.421       .  A
C2294     Br2299   1.944       .  S
C2295      C2296   1.420       .  A
C2296     Br2297   1.928       .  S
C2301      C2302   1.402       .  A
C2301      C2306   1.407       .  A
C2301     Br2308   1.931       .  S
C2302      C2303   1.409       .  A
C2303      C2304   1.412       .  A
C2303     Br2310   1.917       .  S
C2304      C2305   1.414       .  A
C2304     Br2309   1.923       .  S
C2305      C2306   1.426       .  A
C2306     Br2307   1.921       .  S
C2311      C2312   1.399       .  A
C2311      C2316   1.412       .  A
C2311     Br2318   1.926       .  S
C2312      C2313   1.411       .  A
C2313      C2314   1.414       .  A
C2313     Br2320   1.928       .  S
C2314      C2315   1.410       .  A
C2314     Br2319   1.919       .  S
C2315      C2316   1.426       .  A
C2316     Br2317   1.932       .  S
C2321      C2322   1.433       .  A
C2321      C2326   1.411       .  A
C2321     Br2328   1.926       .  S
C2322      C2323   1.413       .  A
C2323      C2324   1.394       .  A
C2323     Br2330   1.945       .  S
C2324      C2325   1.428       .  A
C2324     Br2329   1.939       .  S
C2325      C2326   1.404       .  A
C2326     Br2327   1.932       .  S
C2331      C2332   1.413       .  A
C2331      C2336   1.428       .  A
C2331     Br2338   1.930       .  S
C2332      C2333   1.417       .  A
C2333      C2334   1.402       .  A
C2333     Br2340   1.935       .  S
C2334      C2335   1.418       .  A
C2334     Br2339   1.937       .  S
C2335      C2336   1.438       .  A
C2336     Br2337   1.930       .  S
C2341      C2342   1.399       .  A
C2341      C2346   1.389       .  A
C2341     Br2348   1.920       .  S
C2342      C2343   1.401       .  A
C2343      C2344   1.414       .  A
C2343     Br2350   1.926       .  S
C2344      C2345   1.431       .  A
C2344     Br2349   1.927       .  S
C2345      C2346   1.424       .  A
C2346     Br2347   1.935       .  S
C2351      C2352   1.417       .  A
C2351      C2356   1.406       .  A
C2351     Br2358   1.927       .  S
C2352      C2353   1.412       .  A
C2353      C2354   1.416       .  A
C2353     Br2360   1.917       .  S
C2354      C2355   1.410       .  A
C2354     Br2359   1.923       .  S
C2355      C2356   1.411       .  A
C2356     Br2357   1.938       .  S
C2361      C2362   1.417       .  A
C2361      C2366   1.409       .  A
C2361     Br2368   1.925       .  S
C2362      C2363   1.428       .  A
C2363      C2364   1.416       .  A
C2363     Br2370   1.929       .  S
C2364      C2365   1.408       .  A
C2364     Br2369   1.936       .  S
C2365      C2366   1.403       .  A
C2366     Br2367   1.917       .  S
C2371      C2372   1.422       .  A
C2371      C2376   1.389       .  A
C2371     Br2378   1.936       .  S
C2372      C2373   1.411       .  A
C2373      C2374   1.408       .  A
C2373     Br2380   1.928       .  S
C2374      C2375   1.416       .  A
C2374     Br2379   1.934       .  S
C2375      C2376   1.395       .  A
C2376     Br2377   1.919       .  S
C2381      C2382   1.404       .  A
C2381      C2386   1.406       .  A
C2381     Br2388   1.933       .  S
C2382      C2383   1.406       .  A
C2383      C2384   1.416       .  A
C2383     Br2390   1.937       .  S
C2384      C2385   1.432       .  A
C2384     Br2389   1.931       .  S
C2385      C2386   1.423       .  A
C2386     Br2387   1.939   1_655  S
C2391      C2392   1.402       .  A
C2391      C2396   1.398       .  A
C2392      C2393   1.406       .  A
C2393      C2394   1.413       .  A
C2393     Br2400   1.921       .  S
C2394      C2395   1.424       .  A
C2394     Br2399   1.929   1_655  S
C2395      C2396   1.422       .  A
C2401      C2402   1.421       .  A
C2401      C2406   1.419       .  A
C2401     Br2408   1.924       .  S
C2402      C3243   1.429       .  A
C2403      C3242   1.429       .  A
C2403      C3244   1.417       .  A
C2403     Br2410   1.919       .  S
C2404      C3243   1.417       .  A
C2404      C2405   1.399       .  A
C2404     Br3249   1.931       .  S
C2405      C2406   1.409       .  A
C2406     Br2407   1.928       .  S
Br2409     C3244   1.931       .  S
C2411      C2412   1.419       .  A
C2411      C2416   1.404       .  A
C2411     Br2418   1.928       .  S
C2412      C2413   1.410       .  A
C2413      C2414   1.414       .  A
C2413     Br3260   1.927       .  S
C2414      C2415   1.413       .  A
C2414     Br2419   1.918       .  S
C2415      C2416   1.405       .  A
C2416     Br2417   1.933       .  S
Br2420     C3253   1.928       .  S
C2421      C2422   1.431   1_565  A
C2421      C2426   1.393       .  A
C2421     Br2428   1.937       .  S
C2422      C3263   1.421       .  A
C2423      C3262   1.421       .  A
C2423      C3264   1.416       .  A
C2424      C3263   1.417       .  A
C2424      C2425   1.415       .  A
C2424     Br3269   1.932       .  S
C2425      C2426   1.406   1_545  A
C2426     Br2427   1.948       .  S
Br2429     C3264   1.932       .  S
C2431      C2432   1.404       .  A
C2431      C2436   1.415       .  A
C2431     Br2438   1.931       .  S
C2432      C2433   1.428   1_545  A
C2433      C2434   1.401   1_565  A
C2433     Br2860   1.941       .  S
C2434      C2435   1.413       .  A
C2434     Br3279   1.936   1_545  S
C2435      C2436   1.432       .  A
C2436     Br2437   1.930       .  S
Br2439     C3274   1.936       .  S
Br2440     C2853   1.940       .  S
C2441      C2442   1.402       .  A
C2441      C2446   1.382       .  A
C2441     Br2448   1.934   1_556  S
C2442      C2443   1.412       .  A
C2443      C2444   1.417       .  A
C2443     Br2450   1.918       .  S
C2444      C2445   1.417       .  A
C2444     Br2449   1.925       .  S
C2445      C2446   1.429       .  A
C2446     Br2447   1.946       .  S
C2451      C2452   1.426       .  A
C2451      C2456   1.421       .  A
C2451     Br2458   1.944   1_556  S
C2452      C2453   1.420       .  A
C2453      C2454   1.427       .  A
C2453     Br2460   1.922       .  S
C2454      C2455   1.425       .  A
C2454     Br2459   1.933       .  S
C2455      C2456   1.424       .  A
C2456     Br2457   1.931   1_556  S
C2461      C2462   1.411       .  A
C2461      C2466   1.427       .  A
C2462      C2463   1.412   1_556  A
C2463      C2464   1.414   1_554  A
C2464      C2465   1.430       .  A
C2465      C2466   1.433       .  A
C2466     Br2467   1.928       .  S
C2471      C2472   1.407       .  A
C2471      C2476   1.409       .  A
C2471     Br2478   1.918       .  S
C2473      C2474   1.398       .  A
C2473     Br2480   1.950       .  S
C2474      C2475   1.399       .  A
C2474     Br2479   1.938       .  S
C2476     Br2477   1.905       .  S
C2481      C2482   1.441       .  A
C2481      C2486   1.429       .  A
C2481     Br2488   1.942       .  S
C2483      C2484   1.439       .  A
C2483     Br2490   1.937       .  S
C2484     Br2489   1.916       .  S
C2485      C2486   1.419       .  A
C2486     Br2487   1.933       .  S
C2491      C2496   1.411       .  A
C2491     Br2498   1.937       .  S
C2492      C2493   1.435   1_655  A
C2493      C2494   1.409       .  A
C2493     Br2500   1.912       .  S
C2494      C2495   1.385       .  A
C2494     Br2499   1.921       .  S
C2496     Br2497   1.933       .  S
C2501      C2502   1.431       .  A
C2501      C2506   1.416       .  A
C2501     Br2508   1.934       .  S
C2502      C2503   1.428       .  A
C2503      C2504   1.431       .  A
C2503     Br2510   1.922       .  S
C2504      C2505   1.412       .  A
C2504     Br2509   1.920       .  S
C2505      C2506   1.403       .  A
C2506     Br2507   1.928       .  S
C2511      C2512   1.404       .  A
C2511      C2516   1.410       .  A
C2511     Br2518   1.934       .  S
C2512      C2513   1.406       .  A
C2513      C2514   1.407       .  A
C2513     Br2520   1.924       .  S
C2514      C2515   1.408       .  A
C2514     Br2519   1.922       .  S
C2515      C2516   1.422       .  A
C2516     Br2517   1.924       .  S
C2521      C2522   1.532       .  S
C2521      C2525   1.568       .  S
C2521      C2912   1.554       .  S
C2522      H2529   1.082       .  S
C2522      C2523   1.374       .  D
C2523      C2922   1.541       .  S
C2524      C2528   1.561       .  S
C2524      H2530   1.105       .  S
C2525      H2531   1.083       .  S
C2525      C2526   1.394       .  D
C2526      C2905   1.562       .  S
C2527      H2532   1.092       .  S
C2527      C2528   1.337       .  D
C2528      C2935   1.479       .  S
O2533     Eu2569   2.473       .  S
O2534     Eu2988   2.533       .  S
O2534      C2545   1.301       .  A
O2535      C2546   1.293       .  A
O2536     Eu2541   2.468       .  S
O2536      C2547   1.291       .  A
O2537     Eu2991   2.417       .  S
O2537      C2547   1.285       .  A
O2538     Eu2570   2.435       .  S
O2538      C2546   1.288       .  A
O2539      C2545   1.281   1_545  A
O2540     Eu2541   2.408       .  S
O2540      C2544   1.282   1_655  A
Eu2541     O2551   2.351       .  S
Eu2541     O2542   2.353       .  S
O2542     Eu2991   2.350       .  S
O2543     Eu2570   2.352   1_455  S
C2544      C2915   1.462       .  S
C2545      C2835   1.483       .  S
C2546      C2812   1.485       .  S
C2547      C2862   1.470       .  S
H2548      O2549   0.966       .  S
O2549     Eu2570   2.330       .  S
O2549     Eu2988   2.353       .  S
H2550      O2551   0.967       .  S
O2551     Eu2991   2.371       .  S
O2552     Eu2568   2.537   1_554  S
O2552      C2575   1.303       .  A
O2553     Eu2569   2.504       .  S
O2553      C2996   1.294       .  A
O2554     Eu2570   2.555       .  S
O2554      C2577   1.305       .  A
O2555     Eu2571   2.574       .  S
O2555      C2578   1.311       .  A
O2556     Eu2571   2.538       .  S
O2557      C2580   1.302       .  A
O2558     Eu2572   2.553       .  S
O2558      C2581   1.305       .  A
O2560      C3001   1.264       .  A
O2561     Eu2571   2.435       .  S
O2561      C2582   1.283       .  A
O2562     Eu2988   2.444       .  S
O2562      C2577   1.287       .  A
O2563      C2580   1.288       .  A
O2564     Eu2569   2.447       .  S
O2564      C2579   1.290       .  A
O2565     Eu2568   2.348   1_554  S
O2566      C2575   1.276       .  A
O2567     Eu2572   2.390       .  S
Eu2568     O2954   2.526       .  S
Eu2568     O2982   2.445       .  S
Eu2568     O2969   2.350       .  S
Eu2568     O2586   2.364   1_556  S
Eu2568     O2994   2.318       .  S
Eu2569     O2993   2.370       .  S
Eu2570     O2574   2.356       .  S
Eu2571     O2957   2.415   1_554  S
Eu2571     O2962   2.350   1_554  S
Eu2571     O2971   2.363   1_554  S
Eu2572     O3004   2.348   1_554  S
O2573     Eu2989   2.369   1_554  S
O2574     Eu2988   2.322       .  S
C2575      C2802   1.471       .  S
C2576      O2973   1.294   1_554  A
C2576      C2842   1.510       .  S
C2577      C2872   1.537       .  S
C2578      C2852   1.498       .  S
C2579      C2882   1.510       .  S
C2580      C2825   1.489       .  S
C2581      O2980   1.261   1_554  A
C2581      C2892   1.503       .  S
C2582      C2902   1.553       .  S
H2583      O2584   0.965       .  S
O2584     Eu2992   2.347       .  S
H2585      O2586   0.964       .  S
C2587      C2588   1.514       .  S
C2587      C2593   1.537       .  S
C2587      C2591   1.546       .  S
C2587      C2795   1.533       .  S
C2588      H2595   1.080       .  S
C2588      C2589   1.344       .  D
C2589      C2845   1.479       .  S
C2590      C2592   1.542       .  S
C2590      H2596   1.099       .  S
C2591      H2597   1.086       .  S
C2592      C2782   1.518       .  S
C2593      H2598   1.084       .  S
C2593      C2594   1.365       .  D
C2594      C2855   1.515       .  S
O2599     Eu2635   2.526       .  S
O2599      C2610   1.301       .  A
O2600     Eu2634   2.509       .  S
O2600      C2611   1.296       .  A
O2601     Eu2607   2.516       .  S
O2601      C2612   1.299       .  A
O2602     Eu2607   2.479       .  S
O2602      C2613   1.292       .  A
O2603     Eu2637   2.416       .  S
O2603      C2613   1.273       .  A
O2604     Eu2636   2.424       .  S
O2604      C2612   1.286       .  A
O2605     Eu2607   2.409       .  S
O2605      C2611   1.284       .  A
O2606     Eu2607   2.340       .  S
O2606      C2610   1.272       .  A
Eu2607     O2617   2.371       .  S
Eu2607     O2609   2.344       .  S
Eu2607     O2608   2.325       .  S
Eu2607     O2615   2.326       .  S
O2608     Eu2637   2.356       .  S
O2608     Eu2634   2.324       .  S
O2609     Eu2635   2.345       .  S
O2609     Eu2636   2.333       .  S
C2610      C2932   1.460       .  S
C2611      C2712   1.497       .  S
C2612      C2772   1.498       .  S
C2613      C2792   1.481       .  S
H2614      O2615   0.968       .  S
O2615     Eu2636   2.358       .  S
O2615     Eu2634   2.353       .  S
H2616      O2617   0.966       .  S
O2617     Eu2635   2.329       .  S
O2617     Eu2637   2.363       .  S
O2618     Eu2634   2.465       .  S
O2618      C2641   1.291       .  A
O2619     Eu2635   2.500       .  S
O2619      C2642   1.297       .  A
O2620     Eu2636   2.542       .  S
O2620      C2643   1.302       .  A
O2621     Eu2637   2.508       .  S
O2621      C2644   1.299       .  A
O2622     Eu2637   2.546       .  S
O2622      C2645   1.304       .  A
O2623     Eu2636   2.571       .  S
O2623      C2646   1.305       .  A
O2624     Eu2638   2.544       .  S
O2624      C2647   1.304       .  A
O2625     Eu2638   2.539       .  S
O2625      C2648   1.305       .  A
O2626     Eu2636   2.364       .  S
O2626      C2647   1.269       .  A
O2627     Eu2637   2.464       .  S
O2627      C2648   1.292       .  A
O2628     Eu2634   2.407       .  S
O2628      C2643   1.281       .  A
O2629     Eu2635   2.411       .  S
O2629      C2646   1.271       .  A
O2630     Eu2635   2.418       .  S
O2630      C2645   1.285       .  A
O2631     Eu2634   2.416       .  S
O2631      C2644   1.282       .  A
O2632     Eu2638   2.421       .  S
O2632      C2641   1.286       .  A
O2633     Eu2638   2.468       .  S
O2633      C2642   1.295       .  A
Eu2634     O2652   2.380       .  S
Eu2634     O2640   2.364       .  S
Eu2635     O2639   2.366       .  S
Eu2635     O2650   2.340       .  S
Eu2636     O2650   2.335       .  S
Eu2636     O2640   2.370       .  S
Eu2637     O2639   2.353       .  S
Eu2637     O2652   2.365       .  S
Eu2638     O2639   2.361       .  S
Eu2638     O2650   2.343       .  S
Eu2638     O2652   2.373       .  S
Eu2638     O2640   2.365       .  S
C2641      C2762   1.463       .  S
C2642      C2722   1.491       .  S
C2643      C2785   1.489       .  S
C2644      C2732   1.477       .  S
C2645      C2752   1.513       .  S
C2646      C2702   1.527       .  S
C2647      C2745   1.488       .  S
C2648      C2925   1.508       .  S
H2649      O2650   0.960       .  S
H2651      O2652   0.978       .  S
C2653      C3074   1.543       .  S
C2653      C2659   1.531       .  S
C2653      C2657   1.554       .  S
C2653      C2885   1.579       .  S
C2654      C3073   1.541   1_554  S
C2654      H2661   1.086       .  S
C2654      C2655   1.367       .  D
C2655      C3076   1.547   1_554  S
C2655      C2715   1.500       .  S
C2656      C3075   1.548       .  S
C2656      C2660   1.557       .  S
C2656      C2658   1.535       .  S
C2656      H2662   1.108       .  S
C2657      H2663   1.083       .  S
C2657      C2658   1.374       .  D
C2658      C2895   1.489       .  S
C2659      H2664   1.086       .  S
C2659      C2660   1.377       .  D
C2660      C2705   1.520       .  S
C2665      C2666   1.506   1_655  S
C2665      C2671   1.543       .  S
C2665      C2669   1.565       .  S
C2665      C2815   1.542       .  S
C2666      C2667   1.351       .  D
C2667      C2668   1.556   1_455  S
C2668      C2672   1.533       .  S
C2668      C2670   1.534       .  S
C2668      H2674   1.081       .  S
C2669      H2675   1.065       .  S
C2669      C2670   1.380       .  D
C2670      C2805   1.522       .  S
C2671      H2676   1.086       .  S
C2671      C2672   1.366       .  D
C2672      C2765   1.512       .  S
C2677      C2678   1.506       .  S
C2677      C3103   1.514       .  S
C2677      C2681   1.552       .  S
C2677      C2865   1.535       .  S
C2678      H2685   1.088       .  S
C2678      C2679   1.353       .  D
C2679      C2680   1.569       .  S
C2679      C2725   1.515       .  S
C2680      C2684   1.570       .  S
C2680      C2682   1.582       .  S
C2680      H2686   1.104       .  S
C2681      H2687   1.084       .  S
C2681      C2682   1.396       .  D
C2682      C2875   1.542       .  S
C2683      C3097   1.514       .  S
C2683      H2688   1.088   1_556  S
C2683      C3104   1.340   1_556  D
C2684      C3103   1.341       .  D
C2684      C3155   1.503       .  S
C2689      C2690   1.526       .  S
C2689      C2695   1.554       .  S
C2689      C2755   1.568       .  S
C2690      H2697   1.087       .  S
C2691      C2692   1.561   1_545  S
C2691      C2832   1.497   1_545  S
C2692      C2696   1.551       .  S
C2692      C2694   1.534       .  S
C2692      H2698   1.102       .  S
C2693      H2699   1.080       .  S
C2693      C2694   1.380       .  D
C2694      C2742   1.504       .  S
C2695      H2700   1.081       .  S
C2696      C2822   1.527       .  S
C2701      C2702   1.423       .  A
C2701      C2706   1.431       .  A
C2701     Br2708   1.930       .  S
C2702      C2703   1.438       .  A
C2703      C2704   1.404       .  A
C2703     Br2710   1.943       .  S
C2704      C2705   1.400       .  A
C2704     Br2709   1.938       .  S
C2705      C2706   1.420       .  A
C2706     Br2707   1.920       .  S
C2711      C2712   1.414       .  A
C2711      C2716   1.424       .  A
C2711     Br2718   1.925       .  S
C2712      C2713   1.409       .  A
C2713      C2714   1.396       .  A
C2713     Br2720   1.934       .  S
C2714      C2715   1.420       .  A
C2714     Br2719   1.941       .  S
C2715      C2716   1.418       .  A
C2716     Br2717   1.928   1_554  S
C2721      C2722   1.403       .  A
C2721      C2726   1.408       .  A
C2721     Br2728   1.929       .  S
C2722      C2723   1.409       .  A
C2723      C2724   1.414       .  A
C2723     Br2730   1.918       .  S
C2724      C2725   1.415       .  A
C2724     Br2729   1.922       .  S
C2725      C2726   1.426       .  A
C2726     Br2727   1.921       .  S
C2731      C2732   1.397       .  A
C2731      C2736   1.410       .  A
C2731     Br2738   1.926       .  S
C2732      C2733   1.410       .  A
C2733      C2734   1.414       .  A
C2733     Br2740   1.929       .  S
C2734      C2735   1.411       .  A
C2734     Br2739   1.920       .  S
C2735      C3104   1.500       .  S
C2735      C2736   1.425       .  A
C2736     Br2737   1.932       .  S
C2741      C2742   1.434       .  A
C2741      C2746   1.411       .  A
C2741     Br2748   1.925       .  S
C2742      C2743   1.412       .  A
C2743      C2744   1.394       .  A
C2743     Br2750   1.944       .  S
C2744      C2745   1.427       .  A
C2744     Br2749   1.940       .  S
C2745      C2746   1.404       .  A
C2746     Br2747   1.933       .  S
C2751      C2752   1.413       .  A
C2751      C2756   1.427       .  A
C2751     Br2758   1.929       .  S
C2752      C2753   1.417       .  A
C2753      C2754   1.403       .  A
C2753     Br2760   1.936       .  S
C2754      C2755   1.419       .  A
C2754     Br2759   1.938       .  S
C2755      C2756   1.436       .  A
C2756     Br2757   1.930       .  S
C2761      C2762   1.399       .  A
C2761      C2766   1.389       .  A
C2761     Br2768   1.921       .  S
C2762      C2763   1.400       .  A
C2763      C2764   1.412       .  A
C2763     Br2770   1.925       .  S
C2764      C2765   1.430       .  A
C2764     Br2769   1.928       .  S
C2765      C2766   1.425       .  A
C2766     Br2767   1.938       .  S
C2771      C2772   1.417       .  A
C2771      C2776   1.406       .  A
C2771     Br2778   1.928       .  S
C2772      C2773   1.412       .  A
C2773      C2774   1.415       .  A
C2773     Br2780   1.918       .  S
C2774      C2775   1.410       .  A
C2774     Br2779   1.923       .  S
C2775      C2776   1.412       .  A
C2776     Br2777   1.937       .  S
C2781      C2782   1.418       .  A
C2781      C2786   1.410       .  A
C2781     Br2788   1.926       .  S
C2782      C2783   1.427       .  A
C2783      C2784   1.416       .  A
C2783     Br2790   1.929       .  S
C2784      C2785   1.410       .  A
C2784     Br2789   1.935       .  S
C2785      C2786   1.403       .  A
C2786     Br2787   1.916       .  S
C2791      C2792   1.422       .  A
C2791      C2796   1.389       .  A
C2791     Br2798   1.937       .  S
C2792      C2793   1.413       .  A
C2793      C2794   1.409       .  A
C2793     Br2800   1.929       .  S
C2794      C2795   1.416       .  A
C2794     Br2799   1.934       .  S
C2795      C2796   1.395       .  A
C2796     Br2797   1.919       .  S
C2801      C2802   1.402       .  A
C2801      C2806   1.406       .  A
C2801     Br2808   1.931       .  S
C2802      C2803   1.406       .  A
C2803      C2804   1.417       .  A
C2803     Br2810   1.936       .  S
C2804      C2805   1.434       .  A
C2804     Br2809   1.930       .  S
C2805      C2806   1.423       .  A
C2806     Br2807   1.937   1_655  S
C2811      C2812   1.402       .  A
C2811      C2816   1.397       .  A
C2812      C2813   1.406       .  A
C2813      C2814   1.413       .  A
C2813     Br2820   1.921   1_565  S
C2814      C2815   1.424       .  A
C2814     Br2819   1.932   1_655  S
C2815      C2816   1.422       .  A
C2821      C2822   1.422       .  A
C2821      C2826   1.419       .  A
C2821     Br2828   1.925       .  S
C2823     Br2830   1.919       .  S
C2824      C2825   1.398       .  A
C2825      C2826   1.408       .  A
C2826     Br2827   1.929       .  S
C2831      C2832   1.418       .  A
C2831      C2836   1.404       .  A
C2831     Br2838   1.927       .  S
C2832      C2833   1.409   1_565  A
C2833      C2834   1.413       .  A
C2834      C2835   1.412   1_545  A
C2834     Br2839   1.916       .  S
C2835      C2836   1.406       .  A
C2836     Br2837   1.935       .  S
C2841      C2842   1.433       .  A
C2841      C2846   1.394       .  A
C2841     Br2848   1.943       .  S
C2843     Br3270   1.934   1_554  S
C2844      C2845   1.415       .  A
C2845      C2846   1.407       .  A
C2846     Br2847   1.949       .  S
Br2850     C3263   1.931       .  S
C2851      C2852   1.404       .  A
C2851      C2856   1.416       .  A
C2851     Br2858   1.933       .  S
C2852      C2853   1.430       .  A
C2853      C2854   1.402       .  A
C2854      C2855   1.413       .  A
C2855      C2856   1.434       .  A
C2856     Br2857   1.930       .  S
C2861      C2862   1.402       .  A
C2861      C2866   1.384       .  A
C2861     Br2868   1.934       .  S
C2862      C2863   1.410       .  A
C2863      C2864   1.416       .  A
C2863     Br2870   1.918       .  S
C2864      C2865   1.417       .  A
C2864     Br2869   1.924       .  S
C2865      C2866   1.431       .  A
C2866     Br2867   1.946       .  S
C2871      C2872   1.425       .  A
C2871      C2876   1.420       .  A
C2871     Br2878   1.945       .  S
C2872      C2873   1.419       .  A
C2873      C2874   1.428       .  A
C2873     Br2880   1.926       .  S
C2874      C2875   1.428       .  A
C2874     Br2879   1.932       .  S
C2875      C2876   1.425       .  A
C2876     Br2877   1.931       .  S
C2881      C2882   1.411       .  A
C2881      C2886   1.427       .  A
C2882      C2883   1.412       .  A
C2883      C2884   1.415       .  A
C2883     Br3310   1.937       .  S
C2884      C2885   1.430       .  A
C2884     Br3309   1.938       .  S
C2885      C2886   1.434       .  A
C2886     Br2887   1.929       .  S
Br2889     C3304   1.940       .  S
Br2890     C3303   1.937       .  S
C2891      C2892   1.407       .  A
C2891      C2896   1.407       .  A
C2891     Br2898   1.920       .  S
C2892      C3313   1.440   1_554  A
C2893      C3312   1.437       .  A
C2893      C2894   1.399       .  A
C2893     Br2900   1.948       .  S
C2894      C2895   1.401       .  A
C2894     Br2899   1.936       .  S
C2895      C3316   1.416       .  A
C2896      C3315   1.417   1_554  A
C2896     Br2897   1.908       .  S
C2901      C2902   1.438       .  A
C2901      C2906   1.425       .  A
C2901     Br2908   1.940       .  S
C2903      C2904   1.437       .  A
C2903     Br2910   1.939       .  S
C2904     Br2909   1.914       .  S
C2905      C2906   1.419       .  A
C2906     Br2907   1.933       .  S
C2911      C2916   1.410       .  A
C2911     Br2918   1.937       .  S
C2912      C2913   1.434   1_655  A
C2913      C2914   1.408       .  A
C2913     Br2920   1.917       .  S
C2914      C2915   1.386       .  A
C2914     Br2919   1.921       .  S
C2916     Br2917   1.932       .  S
C2921      C2922   1.429       .  A
C2921      C2926   1.414       .  A
C2921     Br2928   1.935       .  S
C2922      C2923   1.426       .  A
C2923      C2924   1.429       .  A
C2923     Br2930   1.922       .  S
C2924      C2925   1.410       .  A
C2924     Br2929   1.919       .  S
C2925      C2926   1.402       .  A
C2926     Br2927   1.927       .  S
C2931      C2932   1.403       .  A
C2931      C2936   1.409       .  A
C2931     Br2938   1.933       .  S
C2932      C2933   1.405       .  A
C2933      C2934   1.406       .  A
C2933     Br2940   1.923       .  S
C2934      C2935   1.410       .  A
C2934     Br2939   1.922       .  S
C2935      C2936   1.422       .  A
C2936     Br2937   1.925       .  S
C2941      C2942   1.534       .  S
C2941      C2945   1.567       .  S
C2941      C3332   1.553   1_655  S
C2942      H2949   1.081       .  S
C2942      C2943   1.374       .  D
C2943      C3342   1.548       .  S
C2944      C2948   1.563       .  S
C2944      H2950   1.105       .  S
C2945      H2951   1.083       .  S
C2945      C2946   1.392       .  D
C2946      C3325   1.566       .  S
C2947      H2952   1.092       .  S
C2947      C2948   1.336       .  D
C2948      C3355   1.481       .  S
O2953     Eu2989   2.477       .  S
O2954      C2965   1.299       .  A
O2955      C2966   1.295       .  A
O2956     Eu2961   2.460       .  S
O2956      C2967   1.289       .  A
O2957      C2967   1.285       .  A
O2958     Eu2990   2.430       .  S
O2958      C2966   1.287       .  A
O2959      C2965   1.280   1_545  A
O2960     Eu2961   2.416       .  S
O2960      C2964   1.284   1_655  A
Eu2961     O2971   2.350       .  S
Eu2961     O2962   2.355       .  S
O2963     Eu2990   2.356   1_455  S
C2964      C3335   1.460       .  S
C2965      C3255   1.480       .  S
C2966      C3232   1.486       .  S
C2967      C3282   1.467       .  S
H2968      O2969   0.966       .  S
O2969     Eu2990   2.332       .  S
H2970      O2971   0.968       .  S
O2972     Eu2988   2.554       .  S
O2972      C2995   1.306       .  A
O2973     Eu2989   2.500       .  S
O2974     Eu2990   2.550       .  S
O2974      C2997   1.304       .  A
O2975     Eu2991   2.582       .  S
O2975      C2998   1.313       .  A
O2976     Eu2991   2.532       .  S
O2977      C3000   1.303       .  A
O2978     Eu2992   2.558       .  S
O2978      C3001   1.306       .  A
O2981     Eu2991   2.453       .  S
O2981      C3002   1.285       .  A
O2982      C2997   1.287       .  A
O2983      C3000   1.288       .  A
O2984     Eu2989   2.447       .  S
O2984      C2999   1.290       .  A
O2985     Eu2988   2.350       .  S
O2986      C2995   1.273       .  A
O2987     Eu2992   2.398       .  S
Eu2988     O3006   2.358       .  S
Eu2990     O2994   2.348       .  S
C2995      C3222   1.472       .  S
C2996      C3262   1.511       .  S
C2997      C3292   1.537       .  S
C2998      C3272   1.501       .  S
C2999      C3302   1.508       .  S
C3000      C3245   1.494       .  S
C3001      C3312   1.503       .  S
C3002      C3322   1.561       .  S
H3003      O3004   0.965       .  S
H3005      O3006   0.964       .  S
C3007      C3008   1.514       .  S
C3007      C3013   1.537       .  S
C3007      C3011   1.548       .  S
C3007      C3215   1.535       .  S
C3008      H3015   1.079       .  S
C3008      C3009   1.344       .  D
C3009      C3265   1.480       .  S
C3010      C3012   1.541       .  S
C3010      H3016   1.099       .  S
C3011      H3017   1.086       .  S
C3012      C3202   1.517       .  S
C3013      H3018   1.084       .  S
C3013      C3014   1.365       .  D
C3014      C3275   1.514       .  S
O3019     Eu3055   2.528       .  S
O3019      C3030   1.302       .  A
O3020     Eu3054   2.506       .  S
O3020      C3031   1.295       .  A
O3021     Eu3027   2.528       .  S
O3021      C3032   1.301       .  A
O3022     Eu3027   2.489       .  S
O3022      C3033   1.294       .  A
O3023     Eu3057   2.406       .  S
O3023      C3033   1.273       .  A
O3024     Eu3056   2.426       .  S
O3024      C3032   1.287       .  A
O3025     Eu3027   2.403       .  S
O3025      C3031   1.283       .  A
O3026     Eu3027   2.340       .  S
O3026      C3030   1.272       .  A
Eu3027     O3037   2.369       .  S
Eu3027     O3029   2.343       .  S
Eu3027     O3028   2.326       .  S
Eu3027     O3035   2.328       .  S
O3028     Eu3057   2.356       .  S
O3028     Eu3054   2.324       .  S
O3029     Eu3055   2.345       .  S
O3029     Eu3056   2.333       .  S
C3030      C3352   1.461       .  S
C3031      C3132   1.496       .  S
C3032      C3192   1.502       .  S
C3033      C3212   1.482       .  S
H3034      O3035   0.969       .  S
O3035     Eu3056   2.358       .  S
O3035     Eu3054   2.354       .  S
H3036      O3037   0.966       .  S
O3037     Eu3055   2.329       .  S
O3037     Eu3057   2.365       .  S
O3038     Eu3054   2.463       .  S
O3038      C3061   1.291       .  A
O3039     Eu3055   2.502       .  S
O3039      C3062   1.297       .  A
O3040     Eu3056   2.544       .  S
O3040      C3063   1.302       .  A
O3041     Eu3057   2.518       .  S
O3041      C3064   1.301       .  A
O3042     Eu3057   2.549       .  S
O3042      C3065   1.305       .  A
O3043     Eu3056   2.572       .  S
O3043      C3066   1.305       .  A
O3044     Eu3058   2.545       .  S
O3044      C3067   1.305       .  A
O3045     Eu3058   2.549       .  S
O3045      C3068   1.306       .  A
O3046     Eu3056   2.365       .  S
O3046      C3067   1.270       .  A
O3047     Eu3057   2.468       .  S
O3047      C3068   1.293       .  A
O3048     Eu3054   2.409       .  S
O3048      C3063   1.281       .  A
O3049     Eu3055   2.409       .  S
O3049      C3066   1.271       .  A
O3050     Eu3055   2.420       .  S
O3050      C3065   1.285       .  A
O3051     Eu3054   2.415       .  S
O3051      C3064   1.282       .  A
O3052     Eu3058   2.420       .  S
O3052      C3061   1.286       .  A
O3053     Eu3058   2.465       .  S
O3053      C3062   1.294       .  A
Eu3054     O3072   2.381       .  S
Eu3054     O3060   2.364       .  S
Eu3055     O3059   2.367       .  S
Eu3055     O3070   2.343       .  S
Eu3056     O3070   2.338       .  S
Eu3056     O3060   2.371       .  S
Eu3057     O3059   2.354       .  S
Eu3057     O3072   2.362       .  S
Eu3058     O3059   2.361       .  S
Eu3058     O3070   2.349       .  S
Eu3058     O3072   2.373       .  S
Eu3058     O3060   2.367       .  S
C3061      C3182   1.462       .  S
C3062      C3142   1.491       .  S
C3063      C3205   1.490       .  S
C3064      C3152   1.482       .  S
C3065      C3172   1.514       .  S
C3066      C3122   1.526       .  S
C3067      C3165   1.489       .  S
C3068      C3345   1.514       .  S
H3069      O3070   0.960       .  S
H3071      O3072   0.979       .  S
C3073      C3079   1.531       .  S
C3073      C3077   1.552       .  S
C3073      C3305   1.577       .  S
C3074      H3081   1.085       .  S
C3074      C3075   1.368       .  D
C3075      C3135   1.503       .  S
C3076      C3080   1.556       .  S
C3076      C3078   1.534       .  S
C3076      H3082   1.108       .  S
C3077      H3083   1.083   1_556  S
C3077      C3078   1.375       .  D
C3078      C3315   1.486       .  S
C3079      H3084   1.086       .  S
C3079      C3080   1.376       .  D
C3080      C3125   1.520       .  S
C3085      C3086   1.505   1_655  S
C3085      C3091   1.541       .  S
C3085      C3089   1.566       .  S
C3085      C3235   1.541       .  S
C3086      C3087   1.351       .  D
C3087      C3088   1.558   1_455  S
C3088      C3092   1.536       .  S
C3088      C3090   1.533       .  S
C3088      H3094   1.086       .  S
C3089      H3095   1.068       .  S
C3089      C3090   1.380       .  D
C3090      C3225   1.520       .  S
C3091      H3096   1.086       .  S
C3091      C3092   1.366       .  D
C3092      C3185   1.514       .  S
C3097      C3098   1.505       .  S
C3097      C3101   1.551       .  S
C3097      C3285   1.532       .  S
C3098      H3105   1.088       .  S
C3098      C3099   1.352       .  D
C3099      C3100   1.570       .  S
C3099      C3145   1.514       .  S
C3100      C3104   1.568   1_556  S
C3100      C3102   1.582       .  S
C3100      H3106   1.104       .  S
C3101      H3107   1.084       .  S
C3101      C3102   1.396       .  D
C3102      C3295   1.541       .  S
C3103      H3108   1.088       .  S
C3109      C3110   1.526       .  S
C3109      C3115   1.554       .  S
C3109      C3175   1.570       .  S
C3110      H3117   1.087       .  S
C3111      C3112   1.562   1_545  S
C3111      C3252   1.496   1_545  S
C3112      C3116   1.553       .  S
C3112      C3114   1.535       .  S
C3112      H3118   1.103       .  S
C3113      H3119   1.079       .  S
C3113      C3114   1.378       .  D
C3114      C3162   1.503       .  S
C3115      H3120   1.081       .  S
C3116      C3242   1.531       .  S
C3121      C3122   1.422       .  A
C3121      C3126   1.431       .  A
C3121     Br3128   1.931       .  S
C3122      C3123   1.438       .  A
C3123      C3124   1.405       .  A
C3123     Br3130   1.943       .  S
C3124      C3125   1.401       .  A
C3124     Br3129   1.939       .  S
C3125      C3126   1.421       .  A
C3126     Br3127   1.919       .  S
C3131      C3132   1.414       .  A
C3131      C3136   1.425       .  A
C3131     Br3138   1.927       .  S
C3132      C3133   1.408       .  A
C3133      C3134   1.396       .  A
C3133     Br3140   1.937       .  S
C3134      C3135   1.421       .  A
C3134     Br3139   1.944       .  S
C3135      C3136   1.421       .  A
C3136     Br3137   1.928       .  S
C3141      C3142   1.403       .  A
C3141      C3146   1.409       .  A
C3141     Br3148   1.931       .  S
C3142      C3143   1.410       .  A
C3143      C3144   1.413       .  A
C3143     Br3150   1.917       .  S
C3144      C3145   1.414       .  A
C3144     Br3149   1.923       .  S
C3145      C3146   1.427       .  A
C3146     Br3147   1.923       .  S
C3151      C3152   1.398       .  A
C3151      C3156   1.412       .  A
C3151     Br3158   1.926       .  S
C3152      C3153   1.411       .  A
C3153      C3154   1.414       .  A
C3153     Br3160   1.928       .  S
C3154      C3155   1.411       .  A
C3154     Br3159   1.919       .  S
C3155      C3156   1.426       .  A
C3156     Br3157   1.932       .  S
C3161      C3162   1.433       .  A
C3161      C3166   1.411       .  A
C3161     Br3168   1.926       .  S
C3162      C3163   1.413       .  A
C3163      C3164   1.394       .  A
C3163     Br3170   1.944       .  S
C3164      C3165   1.427       .  A
C3164     Br3169   1.940       .  S
C3165      C3166   1.404       .  A
C3166     Br3167   1.932       .  S
C3171      C3172   1.414       .  A
C3171      C3176   1.428       .  A
C3171     Br3178   1.930       .  S
C3172      C3173   1.417       .  A
C3173      C3174   1.403       .  A
C3173     Br3180   1.935       .  S
C3174      C3175   1.419       .  A
C3174     Br3179   1.937       .  S
C3175      C3176   1.437       .  A
C3176     Br3177   1.929       .  S
C3181      C3182   1.397       .  A
C3181      C3186   1.389       .  A
C3181     Br3188   1.922       .  S
C3182      C3183   1.400       .  A
C3183      C3184   1.413       .  A
C3183     Br3190   1.925       .  S
C3184      C3185   1.429       .  A
C3184     Br3189   1.927       .  S
C3185      C3186   1.427       .  A
C3186     Br3187   1.938       .  S
C3191      C3192   1.418       .  A
C3191      C3196   1.407       .  A
C3191     Br3198   1.927       .  S
C3192      C3193   1.413       .  A
C3193      C3194   1.416       .  A
C3193     Br3200   1.916       .  S
C3194      C3195   1.409       .  A
C3194     Br3199   1.923       .  S
C3195      C3196   1.411       .  A
C3196     Br3197   1.938       .  S
C3201      C3202   1.417       .  A
C3201      C3206   1.410       .  A
C3201     Br3208   1.927       .  S
C3202      C3203   1.427       .  A
C3203      C3204   1.417       .  A
C3203     Br3210   1.929       .  S
C3204      C3205   1.410       .  A
C3204     Br3209   1.935       .  S
C3205      C3206   1.404       .  A
C3206     Br3207   1.914       .  S
C3211      C3212   1.423       .  A
C3211      C3216   1.389       .  A
C3211     Br3218   1.937       .  S
C3212      C3213   1.412       .  A
C3213      C3214   1.409       .  A
C3213     Br3220   1.929       .  S
C3214      C3215   1.417       .  A
C3214     Br3219   1.934       .  S
C3215      C3216   1.395       .  A
C3216     Br3217   1.920       .  S
C3221      C3222   1.406       .  A
C3221      C3226   1.405       .  A
C3221     Br3228   1.935       .  S
C3222      C3223   1.409       .  A
C3223      C3224   1.418       .  A
C3223     Br3230   1.937       .  S
C3224      C3225   1.432       .  A
C3224     Br3229   1.931       .  S
C3225      C3226   1.421       .  A
C3226     Br3227   1.940   1_655  S
C3231      C3232   1.403       .  A
C3231      C3236   1.400       .  A
C3232      C3233   1.404       .  A
C3233      C3234   1.411       .  A
C3233     Br3240   1.914   1_565  S
C3234      C3235   1.422       .  A
C3234     Br3239   1.933   1_655  S
C3235      C3236   1.422       .  A
C3241      C3242   1.422       .  A
C3241      C3246   1.421       .  A
C3241     Br3248   1.924       .  S
C3243     Br3250   1.919       .  S
C3244      C3245   1.399       .  A
C3245      C3246   1.409       .  A
C3246     Br3247   1.928       .  S
C3251      C3252   1.419       .  A
C3251      C3256   1.404       .  A
C3251     Br3258   1.928       .  S
C3252      C3253   1.410   1_565  A
C3253      C3254   1.413       .  A
C3254      C3255   1.412   1_545  A
C3254     Br3259   1.917       .  S
C3255      C3256   1.405       .  A
C3256     Br3257   1.935       .  S
C3261      C3262   1.435       .  A
C3261      C3266   1.396       .  A
C3261     Br3268   1.944       .  S
C3264      C3265   1.414       .  A
C3265      C3266   1.407       .  A
C3266     Br3267   1.949       .  S
C3271      C3272   1.404       .  A
C3271      C3276   1.414       .  A
C3271     Br3278   1.925       .  S
C3272      C3273   1.431       .  A
C3273      C3274   1.404       .  A
C3274      C3275   1.412       .  A
C3275      C3276   1.430       .  A
C3276     Br3277   1.930       .  S
C3281      C3282   1.400       .  A
C3281      C3286   1.381       .  A
C3281     Br3288   1.935   1_556  S
C3282      C3283   1.411       .  A
C3283      C3284   1.416       .  A
C3283     Br3290   1.917       .  S
C3284      C3285   1.417       .  A
C3284     Br3289   1.926       .  S
C3285      C3286   1.430       .  A
C3286     Br3287   1.946       .  S
C3291      C3292   1.426       .  A
C3291      C3296   1.421       .  A
C3291     Br3298   1.944   1_556  S
C3292      C3293   1.418       .  A
C3293      C3294   1.426       .  A
C3293     Br3300   1.927       .  S
C3294      C3295   1.426       .  A
C3294     Br3299   1.932       .  S
C3295      C3296   1.425       .  A
C3296     Br3297   1.931   1_556  S
C3301      C3302   1.410       .  A
C3301      C3306   1.425       .  A
C3302      C3303   1.411   1_556  A
C3303      C3304   1.415   1_554  A
C3304      C3305   1.432       .  A
C3305      C3306   1.434       .  A
C3306     Br3307   1.928       .  S
C3311      C3312   1.406       .  A
C3311      C3316   1.408       .  A
C3311     Br3318   1.917       .  S
C3313      C3314   1.398       .  A
C3313     Br3320   1.950       .  S
C3314      C3315   1.400       .  A
C3314     Br3319   1.940       .  S
C3316     Br3317   1.903       .  S
C3321      C3322   1.440       .  A
C3321      C3326   1.429       .  A
C3321     Br3328   1.941       .  S
C3323      C3324   1.438       .  A
C3323     Br3330   1.937       .  S
C3324     Br3329   1.916       .  S
C3325      C3326   1.417       .  A
C3326     Br3327   1.934       .  S
C3331      C3336   1.409       .  A
C3331     Br3338   1.938       .  S
C3332      C3333   1.432       .  A
C3333      C3334   1.407       .  A
C3333     Br3340   1.917       .  S
C3334      C3335   1.387       .  A
C3334     Br3339   1.917       .  S
C3336     Br3337   1.932       .  S
C3341      C3342   1.432       .  A
C3341      C3346   1.418       .  A
C3341     Br3348   1.936       .  S
C3342      C3343   1.428       .  A
C3343      C3344   1.431       .  A
C3343     Br3350   1.922       .  S
C3344      C3345   1.411       .  A
C3344     Br3349   1.922       .  S
C3345      C3346   1.404       .  A
C3346     Br3347   1.929       .  S
C3351      C3352   1.404       .  A
C3351      C3356   1.409       .  A
C3351     Br3358   1.934       .  S
C3352      C3353   1.406       .  A
C3353      C3354   1.407       .  A
C3353     Br3360   1.925       .  S
C3354      C3355   1.410       .  A
C3354     Br3359   1.922       .  S
C3355      C3356   1.422       .  A
C3356     Br3357   1.925       .  S
