geometry optimzed in LAMMPS
_audit_creation_date              2020-11-30 
_audit_creation_method            'lammps2cif' 
_symmetry_space_group_name_H-M    'P1' 
_symmetry_Int_Tables_number       1 
_symmetry_cell_setting            triclinic 
loop_ 
_symmetry_equiv_pos_as_xyz 
  x,y,z 
_cell_length_a                    64.58067031 
_cell_length_b                    64.93808320615392 
_cell_length_c                    64.63002534577512 
_cell_angle_alpha                 90.10754870765798 
_cell_angle_beta                  90.27834483113803 
_cell_angle_gamma                 89.922675972182 
loop_ 
_atom_site_label 
_atom_site_type_symbol 
_atom_site_fract_x 
_atom_site_fract_y 
_atom_site_fract_z 
_atom_site_charge 
O1          O  0.60899024  0.67201647  0.65258811    -0.78400
C2          C  0.66181818  0.67346513  0.60920750     0.82700
O3          O  0.59833618  0.62532798  0.59162353    -0.79500
O4          O  0.66548179  0.60488485  0.60580555    -0.81000
O5          O  0.65321756  0.61168077  0.67382385    -0.80800
O6          O  0.61794683  0.65053946  0.67793257    -0.79400
Zn7        Zn  0.62018511  0.65866270  0.62638234     1.55700
O8          O  0.67703144  0.62153671  0.65108252    -0.80800
Cd9        Cd  0.62652131  0.62473992  0.66159617     1.59700
Cd10       Cd  0.61466711  0.60976043  0.61488202     1.59600
O11         O  0.60164890  0.60543056  0.66533874    -0.80800
O12         O  0.62993429  0.63094996  0.63179139    -1.91300
Cd13       Cd  0.65979750  0.62922050  0.62540483     1.59900
O14         O  0.59313670  0.59441889  0.63364440    -0.80800
O15         O  0.67051053  0.65611945  0.61242891    -0.79400
C16         C  0.59222028  0.64405529  0.59105486     0.83100
C17         C  0.60971098  0.66728067  0.67175659     0.82800
O18         O  0.64302173  0.67667530  0.61433553    -0.78400
C19         C  0.67200590  0.61260314  0.66785138     0.83600
O20         O  0.59798868  0.65737395  0.60441525    -0.78500
C21         C  0.59009648  0.59508606  0.65317158     0.83700
C22         C  0.65504209  0.58963261  0.59903597     0.84000
O23         O  0.63545229  0.58850683  0.60169182    -0.80900
O24         O  0.84305813  0.60908462  0.32552483    -0.78400
C25         C  0.88305085  0.66479297  0.33063511     0.82700
O26         O  0.90437983  0.59487595  0.36827054    -0.79500
O27         O  0.88616045  0.65901521  0.40037081    -0.81000
O28         O  0.81792135  0.64771477  0.38741344    -0.80800
O29         O  0.81737165  0.61277094  0.34805897    -0.79400
Zn30       Zn  0.86791030  0.62161419  0.33980526     1.55700
O31         O  0.84134367  0.67225931  0.38246053    -0.80800
Cd32       Cd  0.83274307  0.62194990  0.37462454     1.59700
Cd33       Cd  0.88110721  0.60889281  0.38663210     1.59600
O34         O  0.83042564  0.59694473  0.39402289    -0.80800
O35         O  0.86260819  0.62686075  0.36875696    -1.91300
Cd36       Cd  0.86784327  0.65640050  0.37449778     1.59900
O37         O  0.86269860  0.58651588  0.40131714    -0.80800
O38         O  0.88144875  0.67055775  0.34943231    -0.79400
C39         C  0.90596735  0.59440464  0.34852571     0.83100
C40         C  0.82406449  0.60704969  0.33043365     0.82800
O41         O  0.87682177  0.64713833  0.32470557    -0.78400
C42         C  0.82350107  0.66656430  0.38849053     0.83600
O43         O  0.89251985  0.60309160  0.33698963    -0.78500
C44         C  0.84302566  0.58444776  0.40264626     0.83700
C45         C  0.89508236  0.64656782  0.41275131     0.84000
O46         O  0.89505092  0.62709000  0.40974005    -0.80900
O47         O  0.89609420  0.41373714  0.14394361    -0.78400
C48         C  0.85399867  0.41246106  0.08839754     0.82700
O49         O  0.84107370  0.36400687  0.15558731    -0.79500
O50         O  0.85081585  0.34429134  0.08896734    -0.81000
O51         O  0.92236424  0.35715163  0.09793875    -0.80800
O52         O  0.92350412  0.39606872  0.13289856    -0.79400
Zn53       Zn  0.87140326  0.39941352  0.13065037     1.55700
O54         O  0.89687277  0.35985706  0.07473285    -0.80800
Cd55       Cd  0.90934562  0.36875821  0.12463328     1.59700
Cd56       Cd  0.86478206  0.35017917  0.13868126     1.59600
O57         O  0.91567704  0.34949360  0.14917965    -0.80800
O58         O  0.87891456  0.37197301  0.12170645    -1.91300
Cd59       Cd  0.87134308  0.36841770  0.09211141     1.59900
O60         O  0.88550534  0.33665956  0.15968308    -0.80800
O61         O  0.85770654  0.39487589  0.08035974    -0.79400
C62         C  0.83770358  0.38303723  0.15921875     0.83100
C63         C  0.91565825  0.41116532  0.14272770     0.82800
O64         O  0.85918003  0.41650680  0.10706127    -0.78400
C65         C  0.91543989  0.35503204  0.07954478     0.83600
O66         O  0.84867842  0.39729497  0.15144197    -0.78500
C67         C  0.90510794  0.33855755  0.16162331     0.83700
C68         C  0.84608889  0.32906552  0.10041155     0.84000
O69         O  0.85165839  0.32786699  0.11935568    -0.80900
C70         C  0.74137212  0.54034527  0.00123818     0.03200
C71         C  0.72684207  0.52964612  0.98877771    -0.12900
C72         C  0.72739087  0.50804291  0.98739874     0.00700
C73         C  0.74218160  0.49712747  0.99894957    -0.11400
C74         C  0.75690391  0.50727316  0.01131127     0.03200
C75         C  0.75621348  0.52890622  0.01260002    -0.10900
H76         H  0.71591791  0.53810137  0.97926439     0.08800
H77         H  0.74247740  0.48046867  0.99785168     0.06300
H78         H  0.76756751  0.53685379  0.02204866     0.06200
C79         C  0.04397994  0.50454399  0.24977760     0.03200
C80         C  0.03236883  0.49248906  0.23571558    -0.12900
C81         C  0.01056876  0.49326559  0.23557645     0.00700
C82         C  0.00054857  0.50657580  0.24950132    -0.11400
C83         C  0.01171364  0.51821009  0.26398373     0.03200
C84         C  0.03340933  0.51706200  0.26419156    -0.10900
H85         H  0.04031507  0.48263603  0.22479489     0.08800
H86         H  0.98383414  0.50802240  0.24914407     0.06300
H87         H  0.04201831  0.52617439  0.27533733     0.06200
O88         O  0.60771197  0.32378870  0.84206191    -0.78400
C89         C  0.66479389  0.32567964  0.88302971     0.82700
O90         O  0.59324633  0.36694627  0.90133222    -0.79500
O91         O  0.65976927  0.39385497  0.89038731    -0.81000
O92         O  0.65194507  0.38163906  0.81884142    -0.80800
O93         O  0.61271733  0.34645896  0.81688504    -0.79400
Zn94       Zn  0.62182633  0.33716533  0.86693107     1.55700
O95         O  0.67481511  0.37955473  0.84459030    -0.80800
Cd96       Cd  0.62473552  0.37161852  0.83255980     1.59700
Cd97       Cd  0.60978717  0.38509785  0.87984469     1.59600
O98         O  0.60262542  0.39389374  0.82895336    -0.80800
O99         O  0.62803388  0.36597391  0.86256351    -1.91300
Cd100      Cd  0.65757630  0.37022450  0.86969930     1.59900
O101        O  0.58922794  0.40116976  0.85989636    -0.80800
O102        O  0.67107471  0.34425106  0.88232940    -0.79400
C103        C  0.59323720  0.34732964  0.90335029     0.83100
C104        C  0.60564901  0.32927549  0.82321271     0.82800
O105        O  0.64694877  0.32065560  0.87615191    -0.78400
C106        C  0.67028451  0.38391844  0.82590176     0.83600
O107        O  0.60303239  0.33566075  0.89094966    -0.78500
C108        C  0.58941293  0.40322265  0.84016821     0.83700
C109        C  0.64809153  0.40713669  0.89897393     0.84000
O110        O  0.62837998  0.40664703  0.89656550    -0.80900
O111        O  0.41042914  0.14564365  0.88182276    -0.78400
C112        C  0.41194295  0.08923881  0.84222626     0.82700
O113        O  0.36030455  0.15762330  0.82898608    -0.79500
O114        O  0.34388680  0.09135522  0.83251412    -0.81000
O115        O  0.35716947  0.09419972  0.90703776    -0.80800
O116        O  0.39550124  0.13067153  0.90886966    -0.79400
Zn117      Zn  0.39682070  0.13129515  0.85735653     1.55700
O118        O  0.35540799  0.07416734  0.87907751    -0.80800
Cd119      Cd  0.36785305  0.12186596  0.89526844     1.59700
Cd120      Cd  0.34721133  0.13913884  0.85212275     1.59600
O121        O  0.34771477  0.14482560  0.90368829    -0.80800
O122        O  0.36968621  0.12151541  0.86469980    -1.91300
Cd123      Cd  0.36630709  0.09266913  0.85527763     1.59900
O124        O  0.33369279  0.15795690  0.87499337    -0.80800
O125        O  0.39411262  0.08104602  0.84429913    -0.79400
C126        C  0.37929156  0.15981745  0.82398959     0.83100
C127        C  0.40905151  0.14271005  0.90129518     0.82800
O128        O  0.41518219  0.10801197  0.84711810    -0.78400
C129        C  0.35263631  0.07709764  0.89839662     0.83600
O130        O  0.39392658  0.15091137  0.83374851    -0.78500
C131        C  0.33600266  0.15786624  0.89467907     0.83700
C132        C  0.32766657  0.10217230  0.82947989     0.84000
O133        O  0.32520336  0.11993764  0.83773009    -0.80900
C134        C  0.49684150  0.24842338  0.03422757     0.03200
C135        C  0.50956268  0.26312984  0.02467026    -0.12900
C136        C  0.51129183  0.26358497  0.00311061     0.00700
C137        C  0.50013250  0.24953696  0.99104824    -0.11400
C138        C  0.48669664  0.23518269  0.00014258     0.03200
C139        C  0.48535589  0.23458305  0.02189979    -0.10900
H140        H  0.51858666  0.27375641  0.03398976     0.08800
H141        H  0.50230426  0.24969847  0.97443966     0.06300
H142        H  0.47510669  0.22370483  0.02931585     0.06200
C143        C  0.49247663  0.23972920  0.69775670     0.03200
C144        C  0.47555932  0.23070923  0.70780545    -0.12900
C145        C  0.47338653  0.23232539  0.72935536     0.00700
C146        C  0.48862747  0.24275094  0.74091109    -0.11400
C147        C  0.50610365  0.25135236  0.73125232     0.03200
C148        C  0.50772390  0.24987530  0.70954628    -0.10900
H149        H  0.46371035  0.22299476  0.69874866     0.08800
H150        H  0.48683735  0.24405515  0.75751007     0.06300
H151        H  0.52102640  0.25627186  0.70171782     0.06200
C152        C  0.54672480  0.99758265  0.74277391     0.03200
C153        C  0.53682075  0.00937114  0.75825990    -0.12900
C154        C  0.51515195  0.01012757  0.75930953     0.00700
C155        C  0.50342159  0.99983364  0.74430612    -0.11400
C156        C  0.51260239  0.98702189  0.72940184     0.03200
C157        C  0.53443284  0.98617323  0.72862751    -0.10900
H158        H  0.54590261  0.01732898  0.76991412     0.08800
H159        H  0.48677602  0.00176966  0.74460901     0.06300
H160        H  0.54191360  0.97657116  0.71719308     0.06200
C161        C  0.95557482  0.99855333  0.24876724     0.03200
C162        C  0.96533824  0.98793260  0.26507884    -0.12900
C163        C  0.98704042  0.98698834  0.26642645     0.00700
C164        C  0.99894476  0.99645313  0.25103802    -0.11400
C165        C  0.98950624  0.00680827  0.23442159     0.03200
C166        C  0.96778571  0.00801540  0.23354408    -0.10900
H167        H  0.95604241  0.98077539  0.27697555     0.08800
H168        H  0.01568319  0.99561698  0.25193385     0.06300
H169        H  0.96034622  0.01578132  0.22067556     0.06200
C170        C  0.25372681  0.28698940  0.00867091     0.03200
C171        C  0.24585953  0.27679209  0.02617751    -0.12900
C172        C  0.24727100  0.25524261  0.02811517     0.00700
C173        C  0.25693858  0.24401764  0.01219619    -0.11400
C174        C  0.26500925  0.25392185  0.99470219     0.03200
C175        C  0.26322416  0.27538838  0.99294188    -0.10900
H176        H  0.23902680  0.28577732  0.03852054     0.08800
H177        H  0.25782743  0.22738539  0.01305578     0.06300
H178        H  0.26939240  0.28305088  0.97943188     0.06200
C179        C  0.25643483  0.94840103  0.00154720     0.03200
C180        C  0.27092709  0.95800962  0.98846934    -0.12900
C181        C  0.27228075  0.97958392  0.98761623     0.00700
C182        C  0.25885600  0.99153149  0.99964513    -0.11400
C183        C  0.24462299  0.98254482  0.01331455     0.03200
C184        C  0.24345799  0.96080861  0.01400160    -0.10900
H185        H  0.28104220  0.94874292  0.97888654     0.08800
H186        H  0.25936512  0.00808642  0.99783573     0.06300
H187        H  0.23282181  0.95341221  0.02451702     0.06200
C188        C  0.29599971  0.99263172  0.26751683     0.03200
C189        C  0.28383448  0.00648153  0.25573461    -0.12900
C190        C  0.26212575  0.00661537  0.25728969     0.00700
C191        C  0.25266971  0.99292897  0.27104538    -0.11400
C192        C  0.26429407  0.97895852  0.28284943     0.03200
C193        C  0.28597343  0.97861102  0.28085809    -0.10900
H194        H  0.29124327  0.01688348  0.24499558     0.08800
H195        H  0.23599370  0.99327960  0.27285995     0.06300
H196        H  0.29498696  0.96812700  0.29031717     0.06200
C197        C  0.01160431  0.24770332  0.95548948     0.03200
C198        C  0.00099463  0.26382132  0.96551843    -0.12900
C199        C  0.00142991  0.26568793  0.98717562     0.00700
C200        C  0.01266584  0.25120369  0.99876741    -0.11400
C201        C  0.02342151  0.23503931  0.98919442     0.03200
C202        C  0.02286770  0.23340991  0.96750504    -0.10900
H203        H  0.99278800  0.27522703  0.95642462     0.08800
H204        H  0.01295805  0.25242740  0.01546941     0.06300
H205        H  0.03073467  0.22069210  0.96003966     0.06200
C206        C  0.00179309  0.25005633  0.30146901     0.03200
C207        C  0.01572361  0.23785258  0.28989549    -0.12900
C208        C  0.01576694  0.23864660  0.26808619     0.00700
C209        C  0.00189448  0.25204749  0.25806352    -0.11400
C210        C  0.98772218  0.26386674  0.26924321     0.03200
C211        C  0.98762800  0.26285156  0.29087002    -0.10900
H212        H  0.02652647  0.22781411  0.29784411     0.08800
H213        H  0.00210564  0.25346762  0.24135862     0.06300
H214        H  0.97657022  0.27208450  0.29938656     0.06200
O215        O  0.10766760  0.07751473  0.14496040    -0.78400
C216        C  0.15739099  0.08200974  0.09669336     0.82700
O217        O  0.16575616  0.11664100  0.17297174    -0.79500
O218        O  0.16532424  0.14948050  0.10735259    -0.81000
O219        O  0.09328368  0.14079969  0.10586997    -0.80800
O220        O  0.08433336  0.10222906  0.14004865    -0.79400
Zn221      Zn  0.13509292  0.09066098  0.13741975     1.55700
O222        O  0.12085636  0.13872183  0.08541931    -0.80800
Cd223      Cd  0.10260083  0.12730636  0.13318673     1.59700
Cd224      Cd  0.14743702  0.13677569  0.15495183     1.59600
O225        O  0.09662391  0.14777396  0.15653968    -0.80800
O226        O  0.13247509  0.12009886  0.13289767    -1.91300
Cd227      Cd  0.14360231  0.12656908  0.10489200     1.59900
O228        O  0.12601003  0.15236552  0.17409290    -0.80800
O229        O  0.15772217  0.10099895  0.09168015    -0.79400
C230        C  0.16591166  0.09692390  0.17338263     0.83100
C231        C  0.08899536  0.08392583  0.14538241     0.82800
O232        O  0.14804200  0.07582410  0.11287464    -0.78400
C233        C  0.10215605  0.14420960  0.08864475     0.83600
O234        O  0.15461185  0.08631646  0.16116123    -0.78500
C235        C  0.10657948  0.15556180  0.17168455     0.83700
C236        C  0.17182373  0.16120298  0.12177644     0.84000
O237        O  0.16628105  0.15902959  0.14062415    -0.80900
O238        O  0.41976028  0.85493971  0.59193079    -0.78400
C239        C  0.41507208  0.90811485  0.63631052     0.82700
O240        O  0.37864134  0.83953838  0.65572636    -0.79500
O241        O  0.34586201  0.90336868  0.63875917    -0.81000
O242        O  0.35573681  0.89028833  0.57132860    -0.80800
O243        O  0.39425253  0.85606956  0.56872079    -0.79400
Zn244      Zn  0.40609237  0.86588644  0.61820557     1.55700
O245        O  0.36379216  0.91552985  0.59334614    -0.80800
Cd246      Cd  0.36870691  0.86466724  0.58554732     1.59700
Cd247      Cd  0.35891913  0.85359137  0.63407166     1.59600
O248        O  0.34925201  0.83947182  0.58433882    -0.80800
O249        O  0.37652617  0.87057826  0.61469102    -1.91300
Cd250      Cd  0.37124911  0.90003443  0.62013522     1.59900
O251        O  0.34299664  0.83086368  0.61722038    -0.80800
O252        O  0.39611486  0.91344371  0.63506194    -0.79400
C253        C  0.39839812  0.83801675  0.65582934     0.83100
C254        C  0.41300776  0.85222907  0.57351890     0.82800
O255        O  0.42155834  0.89129865  0.62845726    -0.78400
C256        C  0.35627613  0.90935673  0.57614624     0.83600
O257        O  0.40946403  0.84612873  0.64172094    -0.78500
C258        C  0.34101685  0.82773378  0.59777464     0.83700
C259        C  0.33403713  0.89155656  0.64903487     0.84000
O260        O  0.33689183  0.87206501  0.64943978    -0.80900
O261        O  0.09268360  0.91177582  0.36838377    -0.78400
C262        C  0.12814226  0.91223837  0.42750818     0.82700
O263        O  0.15906913  0.87557704  0.35931657    -0.79500
O264        O  0.14177014  0.84463295  0.42325012    -0.81000
O265        O  0.07375495  0.84615119  0.40508737    -0.80800
O266        O  0.06931798  0.88679988  0.37100509    -0.79400
Zn267      Zn  0.11816864  0.90049546  0.38281497     1.55700
O268        O  0.09350299  0.85419566  0.43228966    -0.80800
Cd269      Cd  0.08745983  0.86239882  0.38107936     1.59700
Cd270      Cd  0.13740435  0.85534198  0.37256518     1.59600
O271        O  0.08912340  0.84336627  0.35588433    -0.80800
O272        O  0.11589327  0.87148086  0.38855585    -1.91300
Cd273      Cd  0.11951969  0.86687540  0.41877340     1.59900
O274        O  0.12273561  0.83871833  0.34898428    -0.80800
O275        O  0.12778388  0.89371291  0.43400036    -0.79400
C276        C  0.15829840  0.89520375  0.35784254     0.83100
C277        C  0.07443806  0.90488348  0.36530920     0.82800
O278        O  0.12355147  0.91666325  0.40884367    -0.78400
C279        C  0.07788595  0.84508537  0.42439179     0.83600
O280        O  0.14324006  0.90542558  0.36537737    -0.78500
C281        C  0.10358712  0.83575575  0.34497984     0.83700
C282        C  0.15243181  0.83259057  0.41188865     0.84000
O283        O  0.15250294  0.83429254  0.39217607    -0.80900
C284        C  0.99188061  0.73426603  0.55270783     0.03200
C285        C  0.00486903  0.74690912  0.54063158    -0.12900
C286        C  0.00296633  0.74729418  0.51884834     0.00700
C287        C  0.98796834  0.73463288  0.50944966    -0.11400
C288        C  0.97554631  0.72150951  0.52111788     0.03200
C289        C  0.97730059  0.72148603  0.54271083    -0.10900
H290        H  0.01629137  0.75648639  0.54826855     0.08800
H291        H  0.98561019  0.73499222  0.49285242     0.06300
H292        H  0.96752778  0.71133424  0.55166873     0.06200
C293        C  0.24712986  0.03995997  0.49480204     0.03200
C294        C  0.26444256  0.02813654  0.50057708    -0.12900
C295        C  0.26329219  0.00657538  0.50116080     0.00700
C296        C  0.24456451  0.99691812  0.49603854    -0.11400
C297        C  0.22695664  0.00845859  0.49061740     0.03200
C298        C  0.22845200  0.03003515  0.48969329    -0.10900
H299        H  0.27884884  0.03575298  0.50454901     0.08800
H300        H  0.24360101  0.98027699  0.49665049     0.06300
H301        H  0.21494004  0.03915385  0.48575846     0.06200
C302        C  0.24630140  0.69242312  0.50304897     0.03200
C303        C  0.25839507  0.70261808  0.51813543    -0.12900
C304        C  0.25675194  0.72401892  0.52091493     0.00700
C305        C  0.24317624  0.73526577  0.50829332    -0.11400
C306        C  0.23154871  0.72557423  0.49269872     0.03200
C307        C  0.23313654  0.70413556  0.49012978    -0.10900
H308        H  0.26864627  0.69387664  0.52812915     0.08800
H309        H  0.24219077  0.75183853  0.51014813     0.06300
H310        H  0.22400795  0.69659128  0.47823096     0.06200
C311        C  0.00083169  0.75130141  0.21105196     0.03200
C312        C  0.01739345  0.75995928  0.22226005    -0.12900
C313        C  0.01805142  0.75860529  0.24390421     0.00700
C314        C  0.00193304  0.74870947  0.25435965    -0.11400
C315        C  0.98497822  0.74050349  0.24349499     0.03200
C316        C  0.98460761  0.74174509  0.22182865    -0.10900
H317        H  0.03002993  0.76732458  0.21417443     0.08800
H318        H  0.00245187  0.74772458  0.27109058     0.06300
H319        H  0.97141300  0.73573011  0.21336227     0.06200
C320        C  0.20036020  0.98953418  0.74390844     0.03200
C321        C  0.21148357  0.00547374  0.75371138    -0.12900
C322        C  0.23327505  0.00566170  0.75366540     0.00700
C323        C  0.24378729  0.98968683  0.74339312    -0.11400
C324        C  0.23294719  0.97386693  0.73328300     0.03200
C325        C  0.21123118  0.97358573  0.73392191    -0.10900
H326        H  0.20308054  0.01791135  0.76107946     0.08800
H327        H  0.26055618  0.98954563  0.74299007     0.06300
H328        H  0.20281732  0.96166879  0.72568199     0.06200
C329        C  0.75597126  0.19968742  0.99357838     0.03200
C330        C  0.74589915  0.21043382  0.97748587    -0.12900
C331        C  0.74666539  0.23209111  0.97643788     0.00700
C332        C  0.75756316  0.24285712  0.99190729    -0.11400
C333        C  0.76770692  0.23248644  0.00810357     0.03200
C334        C  0.76698302  0.21087632  0.00871597    -0.10900
H335        H  0.73780754  0.20185261  0.96556487     0.08800
H336        H  0.75801108  0.25951133  0.99150802     0.06300
H337        H  0.77438593  0.20278832  0.02139957     0.06200
C338        C  0.49769279  0.75502400  0.79758620     0.03200
C339        C  0.48240137  0.76552788  0.78607602    -0.12900
C340        C  0.48386235  0.76673570  0.76445951     0.00700
C341        C  0.50018116  0.75669326  0.75439253    -0.11400
C342        C  0.51550489  0.74609629  0.76551259     0.03200
C343        C  0.51416466  0.74528834  0.78718174    -0.10900
H344        H  0.46998764  0.77352415  0.79396687     0.08800
H345        H  0.50093729  0.75721869  0.73764738     0.06300
H346        H  0.52603509  0.73732535  0.79597824     0.06200
C347        C  0.50986056  0.74408268  0.45175782     0.03200
C348        C  0.50005413  0.76102723  0.46110725    -0.12900
C349        C  0.49993998  0.76331220  0.48268457     0.00700
C350        C  0.50973593  0.74841145  0.49500606    -0.11400
C351        C  0.51902422  0.73084904  0.48617404     0.03200
C352        C  0.51923615  0.72900542  0.46439545    -0.10900
H353        H  0.49270884  0.77265543  0.45155385     0.08800
H354        H  0.50972360  0.75042801  0.51163374     0.06300
H355        H  0.52606064  0.71555823  0.45721038     0.06200
C356        C  0.73931183  0.80164009  0.49231946     0.03200
C357        C  0.73058614  0.79130853  0.50936328    -0.12900
C358        C  0.72977903  0.76970651  0.50985170     0.00700
C359        C  0.73706886  0.75847894  0.49282713    -0.11400
C360        C  0.74551984  0.76827451  0.47548044     0.03200
C361        C  0.74679872  0.78996075  0.47544872    -0.10900
H362        H  0.72523297  0.80002353  0.52261510     0.08800
H363        H  0.73652238  0.74181725  0.49334820     0.06300
H364        H  0.75330431  0.79778382  0.46220682     0.06200
C365        C  0.45357455  0.50637734  0.75245372     0.03200
C366        C  0.46444710  0.51902271  0.73845797    -0.12900
C367        C  0.48598092  0.51699597  0.73619074     0.00700
C368        C  0.49661577  0.50256036  0.74827192    -0.11400
C369        C  0.48622501  0.48975730  0.76221534     0.03200
C370        C  0.46469585  0.49190405  0.76447833    -0.10900
H371        H  0.45615253  0.53016897  0.72910592     0.08800
H372        H  0.51328876  0.50130135  0.74680093     0.06300
H373        H  0.45652926  0.48172517  0.77488492     0.06200
C374        C  0.79900850  0.48822553  0.73336995     0.03200
C375        C  0.78724282  0.50463545  0.72535216    -0.12900
C376        C  0.76552979  0.50434053  0.72595545     0.00700
C377        C  0.75554905  0.48712859  0.73435878    -0.11400
C378        C  0.76688524  0.47051024  0.74250368     0.03200
C379        C  0.78867966  0.47113850  0.74188285    -0.10900
H380        H  0.79506647  0.51790147  0.71896660     0.08800
H381        H  0.73880267  0.48686058  0.73497756     0.06300
H382        H  0.79757980  0.45856788  0.74841735     0.06200
C383        C  0.75001950  0.45297472  0.50393770     0.03200
C384        C  0.73771885  0.46461359  0.51774643    -0.12900
C385        C  0.73967436  0.48618599  0.51898318     0.00700
C386        C  0.75390366  0.49613017  0.50602393    -0.11400
C387        C  0.76585028  0.48498223  0.49189434     0.03200
C388        C  0.76392872  0.46348781  0.49090132    -0.10900
H389        H  0.72663714  0.45694315  0.52759263     0.08800
H390        H  0.75519073  0.51277075  0.50634232     0.06300
H391        H  0.77360819  0.45503899  0.48019560     0.06200
C392        C  0.70544060  0.48776665  0.24398235     0.03200
C393        C  0.71645455  0.50440802  0.25253969    -0.12900
C394        C  0.73818408  0.50464612  0.25270333     0.00700
C395        C  0.74890992  0.48786909  0.24412693    -0.11400
C396        C  0.73825737  0.47112389  0.23531302     0.03200
C397        C  0.71648030  0.47119037  0.23531466    -0.10900
H398        H  0.70803179  0.51722056  0.25917414     0.08800
H399        H  0.76567355  0.48786759  0.24419977     0.06300
H400        H  0.70813324  0.45835604  0.22856194     0.06200
O401        O  0.12192546  0.34853011  0.67521934    -0.78400
C402        C  0.17571096  0.38778868  0.66455555     0.82700
O403        O  0.09734408  0.40151335  0.62815690    -0.79500
O404        O  0.16883515  0.38770550  0.59908516    -0.81000
O405        O  0.15103423  0.31810877  0.61437228    -0.80800
O406        O  0.11620557  0.32336728  0.65249090    -0.79400
Zn407      Zn  0.13134076  0.37264868  0.65799071     1.55700
O408        O  0.17799645  0.33945643  0.61446824    -0.80800
Cd409      Cd  0.12661311  0.33594365  0.62509077     1.59700
Cd410      Cd  0.11832365  0.38382072  0.61047366     1.59600
O411        O  0.10341864  0.33409156  0.60298475    -0.80800
O412        O  0.13510065  0.36517384  0.62929045    -1.91300
Cd413      Cd  0.16511102  0.36747794  0.62299555     1.59900
O414        O  0.10107032  0.36581854  0.58972857    -0.80800
O415        O  0.18162357  0.38079796  0.64712028    -0.79400
C416        C  0.09597438  0.40281920  0.64785885     0.83100
C417        C  0.11566391  0.33041065  0.67091300     0.82800
O418        O  0.15705411  0.38565164  0.67057935    -0.78400
C419        C  0.17016459  0.32171216  0.61117884     0.83600
O420        O  0.10827940  0.39291054  0.65964764    -0.78500
C421        C  0.09617628  0.34675988  0.58974897     0.83700
C422        C  0.15777928  0.40119450  0.58993691     0.84000
O423        O  0.13829435  0.40273157  0.59319179    -0.80900
O424        O  0.61387758  0.14485323  0.31593924    -0.78400
C425        C  0.66731948  0.10685710  0.32653898     0.82700
O426        O  0.58998464  0.09596524  0.36700480    -0.79500
O427        O  0.66406171  0.10680045  0.38981402    -0.81000
O428        O  0.64511308  0.17845713  0.37318855    -0.80800
O429        O  0.60645521  0.17018157  0.33789507    -0.79400
Zn430      Zn  0.62343359  0.12173329  0.33454524     1.55700
O431        O  0.67132810  0.15643320  0.37704191    -0.80800
Cd432      Cd  0.62045909  0.15981524  0.36484907     1.59700
Cd433      Cd  0.61280149  0.11311642  0.38299291     1.59600
O434        O  0.60062463  0.16299261  0.38924955    -0.80800
O435        O  0.62870969  0.13052959  0.36245359    -1.91300
Cd436      Cd  0.65901128  0.12857188  0.36732199     1.59900
O437        O  0.59812560  0.13241045  0.40467151    -0.80800
O438        O  0.67466898  0.11701176  0.34178380    -0.79400
C439        C  0.58716168  0.09445992  0.34744749     0.83100
C440        C  0.60585721  0.16239252  0.31976042     0.82800
O441        O  0.64795926  0.10661182  0.32257575    -0.78400
C442        C  0.66373637  0.17453047  0.37850337     0.83600
O443        O  0.59923320  0.10312125  0.33467419    -0.78500
C444        C  0.59439120  0.15175950  0.40410834     0.83700
C445        C  0.65331935  0.09375092  0.39983594     0.84000
O446        O  0.63351881  0.09349459  0.39872710    -0.80900
C447        C  0.49718303  0.24308225  0.54166495     0.03200
C448        C  0.51112789  0.23036537  0.53075220    -0.12900
C449        C  0.51281540  0.23186371  0.50915550     0.00700
C450        C  0.49991695  0.24563223  0.49848348    -0.11400
C451        C  0.48579911  0.25819256  0.50893114     0.03200
C452        C  0.48464966  0.25716042  0.53059224    -0.10900
H453        H  0.52109691  0.21979523  0.53910466     0.08800
H454        H  0.50057123  0.24636440  0.48173478     0.06300
H455        H  0.47353745  0.26669503  0.53869559     0.06200
O456        O  0.38084845  0.34828995  0.31759474    -0.78400
C457        C  0.32818686  0.38774280  0.33149889     0.82700
O458        O  0.41147960  0.39528426  0.36514456    -0.79500
O459        O  0.34083828  0.39580356  0.39267344    -0.81000
O460        O  0.34970913  0.31941606  0.37888824    -0.80800
O461        O  0.38416350  0.32166862  0.33889524    -0.79400
Zn462      Zn  0.37294578  0.37252053  0.33596651     1.55700
O463        O  0.32951337  0.34535240  0.38941698    -0.80800
Cd464      Cd  0.37502746  0.33468248  0.36679689     1.59700
Cd465      Cd  0.38973654  0.38022766  0.38356880     1.59600
O466        O  0.39754010  0.32960148  0.38883519    -0.80800
O467        O  0.36999667  0.36480309  0.36464980    -1.91300
Cd468      Cd  0.34116277  0.37055760  0.37344744     1.59900
O469        O  0.40511524  0.35971957  0.40364519    -0.80800
O470        O  0.32284391  0.38021947  0.34889886    -0.79400
C471        C  0.41141215  0.39849477  0.34563523     0.83100
C472        C  0.38553108  0.32947836  0.32085686     0.82800
O473        O  0.34680406  0.38637777  0.32502349    -0.78400
C474        C  0.33451566  0.32632417  0.38932334     0.83600
O475        O  0.39709201  0.39153296  0.33393114    -0.78500
C476        C  0.40677592  0.34010278  0.40278501     0.83700
C477        C  0.35439950  0.40668530  0.40193449     0.84000
O478        O  0.37374203  0.40264152  0.40082765    -0.80900
C479        C  0.54975533  0.49504047  0.25648511     0.03200
C480        C  0.53854877  0.48234418  0.27012346    -0.12900
C481        C  0.51688744  0.48207281  0.26954148     0.00700
C482        C  0.50631890  0.49517169  0.25596669    -0.11400
C483        C  0.51693148  0.50875220  0.24292448     0.03200
C484        C  0.53873129  0.50840742  0.24313440    -0.10900
H485        H  0.54656612  0.47216147  0.28072868     0.08800
H486        H  0.48958428  0.49428918  0.25531483     0.06300
H487        H  0.54708372  0.51824423  0.23260126     0.06200
C488        C  0.49949521  0.75046145  0.95351316     0.03200
C489        C  0.50738778  0.76680791  0.96546034    -0.12900
C490        C  0.50860466  0.76531985  0.98714712     0.00700
C491        C  0.50187423  0.74709535  0.99671614    -0.11400
C492        C  0.49388902  0.73055731  0.98510228     0.03200
C493        C  0.49282917  0.73241365  0.96344966    -0.10900
H494        H  0.51209272  0.78087749  0.95784903     0.08800
H495        H  0.50270435  0.74583943  0.01338337     0.06300
H496        H  0.48710888  0.71968038  0.95421977     0.06200
O497        O  0.37012445  0.57085880  0.10405209    -0.78400
C498        C  0.42196173  0.58527764  0.14586197     0.82700
O499        O  0.34018112  0.61696064  0.15357786    -0.79500
O500        O  0.41169498  0.64963849  0.14786905    -0.81000
O501        O  0.40061739  0.62991529  0.07473632    -0.80800
O502        O  0.36366590  0.59316488  0.07878880    -0.79400
Zn503      Zn  0.37798675  0.58893922  0.12862546     1.55700
O504        O  0.42460764  0.63648237  0.09868938    -0.80800
Cd505      Cd  0.37503798  0.62030155  0.09130475     1.59700
Cd506      Cd  0.36193243  0.63547386  0.13818549     1.59600
O507        O  0.35324807  0.64294077  0.08744914    -0.80800
O508        O  0.38124853  0.61760870  0.12125310    -1.91300
Cd509      Cd  0.41058877  0.62643313  0.12577680     1.59900
O510        O  0.34565426  0.65578739  0.11853345    -0.80800
O511        O  0.42770945  0.60245112  0.13831220    -0.79400
C512        C  0.33962521  0.59735940  0.15527328     0.83100
C513        C  0.36329200  0.57488380  0.08593973     0.82800
O514        O  0.40350351  0.57857312  0.14371672    -0.78400
C515        C  0.41852551  0.63648158  0.07987047     0.83600
O516        O  0.35350454  0.58603636  0.14715458    -0.78500
C517        C  0.34371740  0.65588005  0.09880944     0.83700
C518        C  0.39865551  0.65681754  0.16078919     0.84000
O519        O  0.37939842  0.65222970  0.16004153    -0.80900
C520        C  0.25453434  0.53687754  0.49780504     0.03200
C521        C  0.27016266  0.52786966  0.48556426    -0.12900
C522        C  0.27259421  0.50644112  0.48485103     0.00700
C523        C  0.25911893  0.49387989  0.49602634    -0.11400
C524        C  0.24330435  0.50234912  0.50823738     0.03200
C525        C  0.24106731  0.52392749  0.50899749    -0.10900
H526        H  0.28046511  0.53746306  0.47658743     0.08800
H527        H  0.26085672  0.47731416  0.49487685     0.06300
H528        H  0.22929512  0.53064227  0.51880537     0.06200
O529        O  0.67236690  0.88468629  0.13545821    -0.78400
C530        C  0.65619961  0.82977692  0.09832757     0.82700
O531        O  0.62398563  0.91378073  0.09256277    -0.79500
O532        O  0.59057542  0.84317922  0.09836957    -0.81000
O533        O  0.61521289  0.85221150  0.17032629    -0.80800
O534        O  0.65252893  0.88818123  0.16334188    -0.79400
Zn535      Zn  0.65300944  0.87480454  0.11267022     1.55700
O536        O  0.60616730  0.82932772  0.14626884    -0.80800
Cd537      Cd  0.62411876  0.87765995  0.15322641     1.59700
Cd538      Cd  0.60601939  0.89205581  0.10842826     1.59600
O539        O  0.60165866  0.89925910  0.15961353    -0.80800
O540        O  0.62489607  0.87198960  0.12301502    -1.91300
Cd541      Cd  0.61521912  0.84313233  0.11873829     1.59900
O542        O  0.58652896  0.90724766  0.12964467    -0.80800
O543        O  0.63815991  0.82534689  0.10494191    -0.79400
C544        C  0.64262534  0.91233321  0.08614682     0.83100
C545        C  0.66996681  0.88992261  0.15433188     0.82800
O546        O  0.66363278  0.84789546  0.10035515    -0.78400
C547        C  0.60752589  0.83485749  0.16518964     0.83600
O548        O  0.65427038  0.89724484  0.09111712    -0.78500
C549        C  0.58758939  0.90859725  0.14937397     0.83700
C550        C  0.58274614  0.85665371  0.08632946     0.84000
O551        O  0.58773280  0.87568833  0.08717807    -0.80900
C552        C  0.74995315  0.69634768  0.99821672     0.03200
C553        C  0.73808137  0.70862844  0.01175514    -0.12900
C554        C  0.73900070  0.73029437  0.01097721     0.00700
C555        C  0.75164214  0.73957230  0.99599687    -0.11400
C556        C  0.76377625  0.72770017  0.98253855     0.03200
C557        C  0.76314452  0.70609061  0.98389812    -0.10900
H558        H  0.72846725  0.70123964  0.02323571     0.08800
H559        H  0.75207775  0.75619941  0.99468193     0.06300
H560        H  0.77232205  0.69692295  0.97332875     0.06200
O561        O  0.88411794  0.14717063  0.67492556    -0.78400
C562        C  0.83177598  0.10636794  0.66763222     0.82700
O563        O  0.90773085  0.09243599  0.62869535    -0.79500
O564        O  0.83473744  0.10296214  0.60394113    -0.81000
O565        O  0.85267157  0.17464922  0.61347036    -0.80800
O566        O  0.88975825  0.17152878  0.65142927    -0.79400
Zn567      Zn  0.87512686  0.12232371  0.65846040     1.55700
O568        O  0.82642776  0.15240783  0.61367552    -0.80800
Cd569      Cd  0.87775955  0.15794688  0.62465217     1.59700
Cd570      Cd  0.88605771  0.10946344  0.61117206     1.59600
O571        O  0.89912461  0.15924328  0.60090886    -0.80800
O572        O  0.86986960  0.12871794  0.62989028    -1.91300
Cd573      Cd  0.83944999  0.12570232  0.62551753     1.59900
O574        O  0.90269590  0.12687018  0.58949612    -0.80800
O575        O  0.82400688  0.11498257  0.65166309    -0.79400
C576        C  0.91059254  0.09280569  0.64828116     0.83100
C577        C  0.89069894  0.16500972  0.67005946     0.82800
O578        O  0.85107219  0.10752977  0.67167310    -0.78400
C579        C  0.83386646  0.17009111  0.60942135     0.83600
O580        O  0.89907277  0.10349974  0.66001682    -0.78500
C581        C  0.90648505  0.14614663  0.58818126     0.83700
C582        C  0.84561654  0.08983030  0.59412404     0.84000
O583        O  0.86541279  0.08960977  0.59547968    -0.80900
C584        C  0.70324034  0.99425710  0.75119586     0.03200
C585        C  0.71574511  0.00908475  0.74132201    -0.12900
C586        C  0.73732721  0.00961499  0.74472401     0.00700
C587        C  0.74601219  0.99557723  0.75886011    -0.11400
C588        C  0.73401930  0.98039612  0.76844933     0.03200
C589        C  0.71265082  0.97960242  0.76436102    -0.10900
H590        H  0.70867332  0.01974519  0.73052991     0.08800
H591        H  0.76242088  0.99620656  0.76234911     0.06300
H592        H  0.70328537  0.96809868  0.77201020     0.06200
O593        O  0.86573975  0.91726613  0.89977391    -0.78400
C594        C  0.91856976  0.90706823  0.85851660     0.82700
O595        O  0.83788120  0.87313207  0.84636968    -0.79500
O596        O  0.91069796  0.84311801  0.85470189    -0.81000
O597        O  0.89630752  0.86040130  0.92746387    -0.80800
O598        O  0.85705188  0.89326814  0.92270858    -0.79400
Zn599      Zn  0.87435390  0.90110598  0.87427033     1.55700
O600        O  0.92129116  0.85521229  0.90448030    -0.80800
Cd601      Cd  0.87068319  0.86739681  0.90974565     1.59700
Cd602      Cd  0.86022268  0.85421261  0.86144801     1.59600
O603        O  0.85254538  0.84138872  0.91199224    -0.80800
O604        O  0.87790529  0.87213447  0.88028550    -1.91300
Cd605      Cd  0.90761350  0.86509793  0.87714096     1.59900
O606        O  0.84526263  0.83165731  0.87953330    -0.80800
O607        O  0.92406539  0.88947556  0.86527624    -0.79400
C608        C  0.83661733  0.89284360  0.84608999     0.83100
C609        C  0.85778560  0.91207297  0.91704045     0.82800
O610        O  0.90001998  0.91357970  0.86067998    -0.78400
C611        C  0.91466760  0.85484855  0.92303321     0.83600
O612        O  0.84997842  0.90399274  0.85536979    -0.78500
C613        C  0.84431247  0.82891047  0.89912572     0.83700
C614        C  0.89924080  0.83557141  0.84049822     0.84000
O615        O  0.87963736  0.83873789  0.83996940    -0.80900
O616        O  0.09939310  0.62448618  0.93548883    -0.78400
C617        C  0.13598522  0.56961031  0.92474652     0.82700
O618        O  0.14980894  0.65213938  0.89102927    -0.79500
O619        O  0.14453961  0.58056877  0.86202804    -0.81000
O620        O  0.06984493  0.59287026  0.87435501    -0.80800
O621        O  0.07336991  0.62843707  0.91320671    -0.79400
Zn622      Zn  0.12387845  0.61473636  0.91877280     1.55700
O623        O  0.09406154  0.56959808  0.86729300    -0.80800
Cd624      Cd  0.08657447  0.61745813  0.88628779     1.59700
Cd625      Cd  0.13413196  0.63039599  0.87180892     1.59600
O626        O  0.08327014  0.63909255  0.86373488    -0.80800
O627        O  0.11656887  0.61158202  0.88984350    -1.91300
Cd628      Cd  0.12007016  0.58227233  0.88182668     1.59900
O629        O  0.11431836  0.64579084  0.85035614    -0.80800
O630        O  0.12908383  0.56466561  0.90689916    -0.79400
C631        C  0.15235675  0.65194679  0.91072463     0.83100
C632        C  0.08092739  0.63017099  0.93137873     0.82800
O633        O  0.13550625  0.58823552  0.93111980    -0.78400
C634        C  0.07533984  0.57584768  0.86619328     0.83600
O635        O  0.14427008  0.63787842  0.92180027    -0.78500
C636        C  0.09454061  0.64779867  0.85023064     0.83700
C637        C  0.15758116  0.59261843  0.85365063     0.84000
O638        O  0.15634568  0.61221789  0.85582711    -0.80900
C639        C  0.99512264  0.73411953  0.70947993     0.03200
C640        C  0.98111958  0.74738716  0.71970412    -0.12900
C641        C  0.98065597  0.74837511  0.74135844     0.00700
C642        C  0.99408964  0.73600502  0.75292235    -0.11400
C643        C  0.00802288  0.72247112  0.74330099     0.03200
C644        C  0.00865560  0.72176279  0.72150716    -0.10900
H645        H  0.97105478  0.75747908  0.71088754     0.08800
H646        H  0.99389155  0.73724856  0.76965494     0.06300
H647        H  0.01924066  0.71122487  0.71398475     0.06200
C648        C  0.95518860  0.49408821  0.74056425     0.03200
C649        C  0.96792143  0.48338488  0.72646965    -0.12900
C650        C  0.98953526  0.48315635  0.72906956     0.00700
C651        C  0.99830022  0.49425880  0.74558606    -0.11400
C652        C  0.98602578  0.50418735  0.76040647     0.03200
C653        C  0.96440963  0.50432636  0.75758874    -0.10900
H654        H  0.96100979  0.47502209  0.71368223     0.08800
H655        H  0.01499755  0.49498996  0.74704729     0.06300
H656        H  0.95470640  0.51177246  0.76900190     0.06200
C657        C  0.29718353  0.50355727  0.75630004     0.03200
C658        C  0.28732401  0.48813448  0.74442374    -0.12900
C659        C  0.26574814  0.48549115  0.74538954     0.00700
C660        C  0.25408408  0.49903270  0.75762114    -0.11400
C661        C  0.26351666  0.51428115  0.76986936     0.03200
C662        C  0.28514541  0.51653510  0.76903096    -0.10900
H663        H  0.29653733  0.47762937  0.73522252     0.08800
H664        H  0.23737493  0.49755069  0.75770097     0.06300
H665        H  0.29266165  0.52810589  0.77852994     0.06200
C666        C  0.74668472  0.95723578  0.49647656     0.03200
C667        C  0.73291758  0.96811463  0.48345991    -0.12900
C668        C  0.73339896  0.98970384  0.48283233     0.00700
C669        C  0.74704454  0.00038785  0.49580554    -0.11400
C670        C  0.76038776  0.98998520  0.50940864     0.03200
C671        C  0.76053954  0.96828997  0.50930789    -0.10900
H672        H  0.72243642  0.95979894  0.47332258     0.08800
H673        H  0.74734320  0.01707369  0.49514999     0.06300
H674        H  0.77089386  0.96003288  0.51960702     0.06200
C675        C  0.00251687  0.24555033  0.45806059     0.03200
C676        C  0.99177267  0.22977688  0.46839039    -0.12900
C677        C  0.99209314  0.22853171  0.49009695     0.00700
C678        C  0.00329745  0.24321300  0.50148871    -0.11400
C679        C  0.01363558  0.25951825  0.49164483     0.03200
C680        C  0.01324791  0.26043422  0.46986456    -0.10900
H681        H  0.98297371  0.21856601  0.45957683     0.08800
H682        H  0.00364200  0.24202630  0.51819744     0.06300
H683        H  0.02122767  0.27280317  0.46204109     0.06200
C684        C  0.00596107  0.24514666  0.79931921     0.03200
C685        C  0.98915078  0.23646688  0.78836704    -0.12900
C686        C  0.98843617  0.23719587  0.76661188     0.00700
C687        C  0.00491347  0.24631477  0.75591652    -0.11400
C688        C  0.02171183  0.25503738  0.76655706     0.03200
C689        C  0.02204142  0.25462045  0.78822545    -0.10900
H690        H  0.97665527  0.22918783  0.79673500     0.08800
H691        H  0.00467340  0.24666748  0.73914964     0.06300
H692        H  0.03494507  0.26154863  0.79643516     0.06200
C693        C  0.50631698  0.73985169  0.29516293     0.03200
C694        C  0.48952941  0.73118294  0.28402797    -0.12900
C695        C  0.48883453  0.73194848  0.26218381     0.00700
C696        C  0.50536920  0.74139008  0.25174449    -0.11400
C697        C  0.52196167  0.75049128  0.26244677     0.03200
C698        C  0.52230214  0.74962517  0.28414556    -0.10900
H699        H  0.47706533  0.72387660  0.29238700     0.08800
H700        H  0.50533137  0.74184601  0.23502259     0.06300
H701        H  0.53502795  0.75668857  0.29249560     0.06200
C702        C  0.79945840  0.00011883  0.24002017     0.03200
C703        C  0.78997004  0.98441247  0.22827781    -0.12900
C704        C  0.76839305  0.98301638  0.22717671     0.00700
C705        C  0.75625889  0.99786698  0.23708069    -0.11400
C706        C  0.76514180  0.01326029  0.24957549     0.03200
C707        C  0.78693433  0.01443436  0.25072329    -0.10900
H708        H  0.79931691  0.97298742  0.22040631     0.08800
H709        H  0.73960841  0.99697760  0.23525004     0.06300
H710        H  0.79421225  0.02583120  0.26058768     0.06200
C711        C  0.24898450  0.79201159  0.00164855     0.03200
C712        C  0.26206723  0.78082239  0.01525828    -0.12900
C713        C  0.26167431  0.75917014  0.01558159     0.00700
C714        C  0.24770561  0.74872105  0.00272032    -0.11400
C715        C  0.23434375  0.75922419  0.98930872     0.03200
C716        C  0.23521500  0.78090115  0.98854216    -0.10900
H717        H  0.27257867  0.78886408  0.02556411     0.08800
H718        H  0.24708366  0.73203761  0.00327223     0.06300
H719        H  0.22502377  0.78901843  0.97799163     0.06200
C720        C  0.74708339  0.29704911  0.49729057     0.03200
C721        C  0.75652635  0.28505476  0.51288299    -0.12900
C722        C  0.75658244  0.26342290  0.51168980     0.00700
C723        C  0.74733918  0.25383126  0.49451196    -0.11400
C724        C  0.73795949  0.26543903  0.47874557     0.03200
C725        C  0.73769659  0.28702006  0.48031395    -0.10900
H726        H  0.76385506  0.29254900  0.52598285     0.08800
H727        H  0.74752845  0.23718314  0.49331741     0.06300
H728        H  0.73025173  0.29596877  0.46825613     0.06200
C729        C  0.20069110  0.50213364  0.24621096     0.03200
C730        C  0.21217476  0.51682900  0.23498072    -0.12900
C731        C  0.23384006  0.51543964  0.23391650     0.00700
C732        C  0.24404713  0.49964534  0.24460764    -0.11400
C733        C  0.23307133  0.48485337  0.25584612     0.03200
C734        C  0.21135648  0.48624862  0.25674832    -0.10900
H735        H  0.20425016  0.52874179  0.22628973     0.08800
H736        H  0.26080136  0.49876147  0.24397109     0.06300
H737        H  0.20278747  0.47483131  0.26538673     0.06200
C738        C  0.24979444  0.44253018  0.00887602     0.03200
C739        C  0.23261546  0.45319049  0.00067421    -0.12900
C740        C  0.23195072  0.47480113  0.00062026     0.00700
C741        C  0.24880203  0.48579111  0.00877375    -0.11400
C742        C  0.26625662  0.47560014  0.01682564     0.03200
C743        C  0.26659825  0.45390577  0.01698377    -0.10900
H744        H  0.21974375  0.44463701  0.99416976     0.08800
H745        H  0.24847285  0.50247098  0.00859013     0.06300
H746        H  0.27993005  0.44592664  0.02331173     0.06200
C747        C  0.45226987  0.99563801  0.25477416     0.03200
C748        C  0.46321043  0.98321943  0.24049322    -0.12900
C749        C  0.48503448  0.98405615  0.23960275     0.00700
C750        C  0.49567641  0.99755940  0.25290249    -0.11400
C751        C  0.48508353  0.00966945  0.26724938     0.03200
C752        C  0.46347311  0.00869266  0.26819118    -0.10900
H753        H  0.45482953  0.97297665  0.23020524     0.08800
H754        H  0.51241706  0.99860398  0.25219812     0.06300
H755        H  0.45539338  0.01808371  0.27944813     0.06200
C756        C  0.48786072  0.23756069  0.18959489     0.03200
C757        C  0.47107271  0.24678117  0.19994047    -0.12900
C758        C  0.46944883  0.24581239  0.22157454     0.00700
C759        C  0.48480326  0.23531427  0.23284809    -0.11400
C760        C  0.50189501  0.22627994  0.22291957     0.03200
C761        C  0.50312280  0.22719422  0.20121745    -0.10900
H762        H  0.45921010  0.25473592  0.19113315     0.08800
H763        H  0.48379360  0.23476103  0.24956151     0.06300
H764        H  0.51648949  0.22077241  0.19345185     0.06200
C765        C  0.25828002  0.19453982  0.50239385     0.03200
C766        C  0.24950729  0.20440200  0.51967907    -0.12900
C767        C  0.25148914  0.22574466  0.52240701     0.00700
C768        C  0.26248486  0.23718456  0.50773906    -0.11400
C769        C  0.27113636  0.22771628  0.49025440     0.03200
C770        C  0.26879428  0.20636691  0.48752948    -0.10900
H771        H  0.24108176  0.19545978  0.53099507     0.08800
H772        H  0.26368795  0.25373848  0.50955006     0.06300
H773        H  0.27570753  0.19889510  0.47424033     0.06200
C774        C  0.99976314  0.74867170  0.05520903     0.03200
C775        C  0.00806153  0.73145143  0.04495855    -0.12900
C776        C  0.00743631  0.73005706  0.02328523     0.00700
C777        C  0.99827141  0.74607796  0.01191040    -0.11400
C778        C  0.99009674  0.76352901  0.02185935     0.03200
C779        C  0.99091816  0.76468121  0.04354350    -0.10900
H780        H  0.01509105  0.71915107  0.05386798     0.08800
H781        H  0.99767264  0.74501871  0.99519427     0.06300
H782        H  0.98461384  0.77802669  0.05138707     0.06200
C783        C  0.75265624  0.04412969  0.00392372     0.03200
C784        C  0.73626039  0.03307910  0.01313734    -0.12900
C785        C  0.73676971  0.01139841  0.01427829     0.00700
C786        C  0.75420971  0.00098709  0.00656179    -0.11400
C787        C  0.77043092  0.01152796  0.99692006     0.03200
C788        C  0.76950650  0.03308777  0.99556995    -0.10900
H789        H  0.72308790  0.04133418  0.01930840     0.08800
H790        H  0.75505543  0.98437619  0.00768570     0.06300
H791        H  0.78190665  0.04124414  0.98790914     0.06200
C792        C  0.04379902  0.99416078  0.74389663     0.03200
C793        C  0.03210882  0.00521848  0.72911761    -0.12900
C794        C  0.01059326  0.00711014  0.73107679     0.00700
C795        C  0.00048155  0.99716247  0.74733065    -0.11400
C796        C  0.01156298  0.98570824  0.76210303     0.03200
C797        C  0.03328401  0.98444849  0.76034349    -0.10900
H798        H  0.03968191  0.01277129  0.71629802     0.08800
H799        H  0.98376918  0.99825521  0.74820875     0.06300
H800        H  0.04203227  0.97644731  0.77218098     0.06200
C801        C  0.16413714  0.66856992  0.92178215    -0.01200
C802        C  0.16374749  0.66904406  0.94351431    -0.09200
C803        C  0.17375020  0.68446076  0.95474924    -0.18000
C804        C  0.18483234  0.70026675  0.94475286     0.04400
C805        C  0.18566537  0.69977151  0.92275494     0.18500
C806        C  0.17519328  0.68413104  0.91146334    -0.19500
C807        C  0.19708757  0.71481944  0.91226722    -0.20700
C808        C  0.20791904  0.73005325  0.92312777    -0.19300
C809        C  0.20736683  0.73094399  0.94480191     0.19900
C810        C  0.19543409  0.71626054  0.95587444     0.02000
C811        C  0.19479476  0.71808393  0.97766998    -0.14000
C812        C  0.20644083  0.73295491  0.98805829    -0.11700
C813        C  0.21909077  0.74673048  0.97729749     0.01600
C814        C  0.21907286  0.74603750  0.95555809    -0.23900
H815        H  0.15542996  0.65742277  0.95212283     0.09600
H816        H  0.17263557  0.68337580  0.97132703     0.13200
H817        H  0.17575835  0.68403287  0.89470707     0.11900
H818        H  0.19789431  0.71464392  0.89552506     0.13100
H819        H  0.21687417  0.74118382  0.91449136     0.12100
H820        H  0.18567006  0.70807557  0.98724959     0.09200
H821        H  0.20611682  0.73326671  0.00482193     0.12500
H822        H  0.22891255  0.75655282  0.94709648     0.14300
C823        C  0.14579818  0.55339949  0.93773049    -0.01200
C824        C  0.14981282  0.53390227  0.92925928    -0.09200
C825        C  0.16159638  0.51938762  0.94002577    -0.18000
C826        C  0.16990933  0.52388989  0.95978405     0.04400
C827        C  0.16461149  0.54310921  0.96896106     0.18500
C828        C  0.15272124  0.55762971  0.95791545    -0.19500
C829        C  0.17181704  0.54800629  0.98882814    -0.20700
C830        C  0.18500071  0.53467046  0.99938692    -0.19300
C831        C  0.19153801  0.51623347  0.99023087     0.19900
C832        C  0.18381406  0.51036085  0.97045243     0.02000
C833        C  0.19108857  0.49165094  0.96185082    -0.14000
C834        C  0.20608942  0.47983950  0.97201309    -0.11700
C835        C  0.21423636  0.48609682  0.99113487     0.01600
C836        C  0.20639468  0.50402585  0.00041487    -0.23900
H837        H  0.14445430  0.53001913  0.91383364     0.09600
H838        H  0.16424802  0.50494186  0.93225812     0.13200
H839        H  0.14946722  0.57251461  0.96480542     0.11900
H840        H  0.16760638  0.56247483  0.99607010     0.13100
H841        H  0.19066785  0.53913933  0.01455410     0.12100
H842        H  0.18604646  0.48605128  0.94696524     0.09200
H843        H  0.21194953  0.46615063  0.96442680     0.12500
H844        H  0.21233183  0.50881945  0.01538661     0.14300
C845        C  0.06857710  0.64041148  0.94773613    -0.01200
C846        C  0.07794865  0.64604983  0.96651808    -0.09200
C847        C  0.06770371  0.65876645  0.98058587    -0.18000
C848        C  0.04763451  0.66641016  0.97627077     0.04400
C849        C  0.03763917  0.65950153  0.95787509     0.18500
C850        C  0.04810933  0.64663169  0.94388187    -0.19500
C851        C  0.01752758  0.66609263  0.95315593    -0.20700
C852        C  0.00740425  0.68009287  0.96588488    -0.19300
C853        C  0.01723364  0.68802498  0.98351724     0.19900
C854        C  0.03738079  0.68110733  0.98916334     0.02000
C855        C  0.04666940  0.68982363  0.00701214    -0.14000
C856        C  0.03665871  0.70520374  0.01831496    -0.11700
C857        C  0.01705719  0.71235309  0.01235463     0.01600
C858        C  0.00725845  0.70334045  0.99517999    -0.23900
H859        H  0.09365862  0.64131384  0.97005320     0.09600
H860        H  0.07611796  0.66269184  0.99447174     0.13200
H861        H  0.04056710  0.64217229  0.92953533     0.11900
H862        H  0.00972570  0.66071011  0.93928308     0.13100
H863        H  0.99198759  0.68519093  0.96158443     0.12100
H864        H  0.06190407  0.68553322  0.01233267     0.09200
H865        H  0.04464349  0.71204742  0.03139720     0.12500
H866        H  0.99195132  0.70857201  0.99062458     0.14300
C867        C  0.17450690  0.58274672  0.84148726    -0.01200
C868        C  0.19123334  0.59378459  0.83328807    -0.09200
C869        C  0.20708841  0.58356667  0.82241119    -0.18000
C870        C  0.20664984  0.56190402  0.81943188     0.04400
C871        C  0.18972720  0.55094156  0.82802020     0.18500
C872        C  0.17407609  0.56130713  0.83869717    -0.19500
C873        C  0.18831229  0.52956023  0.82592415    -0.20700
C874        C  0.20323580  0.51867509  0.81517826    -0.19300
C875        C  0.21988370  0.52889986  0.80610010     0.19900
C876        C  0.22205750  0.55061689  0.80812039     0.02000
C877        C  0.23932210  0.55990010  0.79841760    -0.14000
C878        C  0.25321562  0.54816402  0.78652593    -0.11700
C879        C  0.25041877  0.52686188  0.78407842     0.01600
C880        C  0.23407335  0.51738515  0.79455520    -0.23900
H881        H  0.19213691  0.61030967  0.83536361     0.09600
H882        H  0.21948558  0.59295247  0.81651844     0.13200
H883        H  0.16137314  0.55239036  0.84492909     0.11900
H884        H  0.17545558  0.52116725  0.83255121     0.13100
H885        H  0.20155119  0.50212962  0.81367812     0.12100
H886        H  0.24217201  0.57623174  0.79937751     0.09200
H887        H  0.26577770  0.55588905  0.77868766     0.12500
H888        H  0.23209986  0.50083830  0.79337809     0.14300
C889        C  0.05977428  0.56380482  0.85412016    -0.01200
C890        C  0.04062476  0.57269073  0.84886799    -0.09200
C891        C  0.02691630  0.56281785  0.83528332    -0.18000
C892        C  0.03184734  0.54351768  0.82643374     0.04400
C893        C  0.05069230  0.53396463  0.83277282     0.18500
C894        C  0.06444905  0.54416481  0.84631847    -0.19500
C895        C  0.05594924  0.51446912  0.82517018    -0.20700
C896        C  0.04322941  0.50449347  0.81094011    -0.19300
C897        C  0.02515619  0.51394691  0.80356207     0.19900
C898        C  0.01906059  0.53353678  0.81123219     0.02000
C899        C  0.00086895  0.54250856  0.80276777    -0.14000
C900        C  0.98977028  0.53278471  0.78679713    -0.11700
C901        C  0.99624623  0.51373147  0.77888946     0.01600
C902        C  0.01356558  0.50415058  0.78797792    -0.23900
H903        H  0.03643665  0.58775701  0.85473550     0.09600
H904        H  0.01268126  0.57079946  0.83181225     0.13200
H905        H  0.07906277  0.53696587  0.85039866     0.11900
H906        H  0.07014542  0.50697103  0.83007813     0.13100
H907        H  0.04790673  0.48951268  0.80518305     0.12100
H908        H  0.99522941  0.55735298  0.80766556     0.09200
H909        H  0.97650494  0.54058324  0.78012133     0.12500
H910        H  0.01845031  0.48913390  0.78247876     0.14300
C911        C  0.08346204  0.65971735  0.83381880    -0.01200
C912        C  0.09346318  0.66768806  0.81636169    -0.09200
C913        C  0.08206540  0.67737825  0.80048579    -0.18000
C914        C  0.06019478  0.67928372  0.80156601     0.04400
C915        C  0.05029620  0.67128553  0.81940881     0.18500
C916        C  0.06185259  0.66187340  0.83514504    -0.19500
C917        C  0.02878809  0.67251984  0.82153237    -0.20700
C918        C  0.01674132  0.68172170  0.80635781    -0.19300
C919        C  0.02588267  0.69000934  0.78868764     0.19900
C920        C  0.04769430  0.68885833  0.78583069     0.02000
C921        C  0.05585530  0.69753831  0.76748931    -0.14000
C922        C  0.04295948  0.70764645  0.75313953    -0.11700
C923        C  0.02159518  0.70934720  0.75658078     0.01600
C924        C  0.01321147  0.69990520  0.77411159    -0.23900
H925        H  0.11008089  0.66615719  0.81479962     0.09600
H926        H  0.09072284  0.68307906  0.78748143     0.13200
H927        H  0.05372471  0.65587050  0.84847481     0.11900
H928        H  0.02119608  0.66635435  0.83509764     0.13100
H929        H  0.00013214  0.68255417  0.80857719     0.12100
H930        H  0.07217405  0.69712007  0.76407065     0.09200
H931        H  0.04983118  0.71483267  0.73971915     0.12500
H932        H  0.99664948  0.70075767  0.77671776     0.14300
C933        C  0.93402598  0.91957732  0.84707673    -0.01200
C934        C  0.95312082  0.91086477  0.84150458    -0.09200
C935        C  0.96710326  0.92157172  0.82911115    -0.18000
C936        C  0.96250641  0.94155899  0.82178596     0.04400
C937        C  0.94349916  0.95067999  0.82811881     0.18500
C938        C  0.92949244  0.93966818  0.84053181    -0.19500
C939        C  0.93839325  0.97062654  0.82171682    -0.20700
C940        C  0.95152068  0.98157794  0.80879361    -0.19300
C941        C  0.96996490  0.97276444  0.80167719     0.19900
C942        C  0.97584217  0.95268095  0.80813405     0.02000
C943        C  0.99450840  0.94446015  0.80016796    -0.14000
C944        C  0.00632582  0.95539299  0.78580122    -0.11700
C945        C  0.00018597  0.97499263  0.77905164     0.01600
C946        C  0.98225894  0.98376794  0.78764325    -0.23900
H947        H  0.95715117  0.89539829  0.84632494     0.09600
H948        H  0.98129375  0.91368305  0.82538275     0.13200
H949        H  0.91486593  0.94666081  0.84480452     0.11900
H950        H  0.92402506  0.97775007  0.82657686     0.13100
H951        H  0.94697262  0.99690947  0.80395263     0.12100
H952        H  0.00009893  0.92936042  0.80425195     0.09200
H953        H  0.01996105  0.94809448  0.77940990     0.12500
H954        H  0.97755496  0.99913860  0.78308808     0.14300
C955        C  0.78757565  0.99951159  0.98736824    -0.01200
C956        C  0.79612263  0.98257222  0.99779049    -0.09200
C957        C  0.80969741  0.96910245  0.98782133    -0.18000
C958        C  0.81510984  0.97204168  0.96686168     0.04400
C959        C  0.80755753  0.99003523  0.95678821     0.18500
C960        C  0.79399567  0.00356465  0.96708216    -0.19500
C961        C  0.81294292  0.99400353  0.93622997    -0.20700
C962        C  0.82506103  0.98012872  0.92518665    -0.19300
C963        C  0.83185822  0.96177250  0.93431325     0.19900
C964        C  0.82716222  0.95751250  0.95534867     0.02000
C965        C  0.83396888  0.93848821  0.96362168    -0.14000
C966        C  0.84426662  0.92405207  0.95131390    -0.11700
C967        C  0.84851617  0.92816101  0.93048742     0.01600
C968        C  0.84269165  0.94730965  0.92225971    -0.23900
H969        H  0.79184818  0.97941567  0.01365810     0.09600
H970        H  0.81536462  0.95632327  0.99683484     0.13200
H971        H  0.78752237  0.01664017  0.95887476     0.11900
H972        H  0.80741553  0.00776483  0.92849865     0.13100
H973        H  0.82864218  0.98351152  0.90918304     0.12100
H974        H  0.83103889  0.93401941  0.97938263     0.09200
H975        H  0.84870148  0.90945053  0.95810694     0.12500
H976        H  0.84577356  0.95063599  0.90612947     0.14300
C977        C  0.92803908  0.84652943  0.93974803    -0.01200
C978        C  0.92040515  0.84474200  0.95994829    -0.09200
C979        C  0.93126372  0.83363342  0.97495156    -0.18000
C980        C  0.95014205  0.82372660  0.97014636     0.04400
C981        C  0.95861409  0.82699528  0.95014563     0.18500
C982        C  0.94760956  0.83836623  0.93525465    -0.19500
C983        C  0.97760134  0.81813388  0.94479031    -0.20700
C984        C  0.98794150  0.80527635  0.95853570    -0.19300
C985        C  0.97939865  0.80074912  0.97784789     0.19900
C986        C  0.96053158  0.81011508  0.98411340     0.02000
C987        C  0.95244585  0.80466823  0.00366496    -0.14000
C988        C  0.96226176  0.78994112  0.01602468    -0.11700
C989        C  0.98056088  0.78035526  0.00949422     0.01600
C990        C  0.98930540  0.78631431  0.99062165    -0.23900
H991        H  0.90552607  0.85126548  0.96402760     0.09600
H992        H  0.92420060  0.83265182  0.98998616     0.13200
H993        H  0.95386686  0.83993404  0.91979934     0.11900
H994        H  0.98426393  0.82076109  0.92966384     0.13100
H995        H  0.00239864  0.79828160  0.95374683     0.12100
H996        H  0.93820886  0.81098356  0.00956260     0.09200
H997        H  0.95507908  0.78555352  0.03046325     0.12500
H998        H  0.00371729  0.77936497  0.98562126     0.14300
C999        C  0.90998621  0.82383805  0.82393395    -0.01200
C1000       C  0.93068509  0.82877552  0.81978064    -0.09200
C1001       C  0.94205709  0.81796367  0.80513107    -0.18000
C1002       C  0.93324206  0.80140763  0.79402645     0.04400
C1003       C  0.91214679  0.79643850  0.79796416     0.18500
C1004       C  0.90062077  0.80781523  0.81267444    -0.19500
C1005       C  0.90289075  0.77992936  0.78744438    -0.20700
C1006       C  0.91419603  0.76807140  0.77343004    -0.19300
C1007       C  0.93505136  0.77244789  0.76945254     0.19900
C1008       C  0.94479197  0.78938152  0.77951535     0.02000
C1009       C  0.96585812  0.79326324  0.77497566    -0.14000
C1010       C  0.97697131  0.78038002  0.76180210    -0.11700
C1011       C  0.96753351  0.76341821  0.75242708     0.01600
C1012       C  0.94645737  0.75967592  0.75594508    -0.23900
H1013       H  0.93828355  0.84125642  0.82796860     0.09600
H1014       H  0.95782482  0.82287779  0.80311738     0.13200
H1015       H  0.88464106  0.80382826  0.81576907     0.11900
H1016       H  0.88685784  0.77597653  0.79028075     0.13100
H1017       H  0.90662330  0.75522665  0.76581451     0.12100
H1018       H  0.97440527  0.80586416  0.78164990     0.09200
H1019       H  0.99328181  0.78335344  0.75932467     0.12500
H1020       H  0.93920838  0.74635143  0.74885030     0.14300
C1021       C  0.74449189  0.96566476  0.78266725    -0.01200
C1022       C  0.74449340  0.94443467  0.77870721    -0.09200
C1023       C  0.75774393  0.93116825  0.78974309    -0.18000
C1024       C  0.77147156  0.93886348  0.80509033     0.04400
C1025       C  0.77034441  0.96027427  0.80977831     0.18500
C1026       C  0.75695309  0.97328735  0.79869947    -0.19500
C1027       C  0.78321095  0.96885555  0.82493795    -0.20700
C1028       C  0.79784792  0.95685790  0.83504069    -0.19300
C1029       C  0.80003095  0.93595393  0.83024510     0.19900
C1030       C  0.78671017  0.92642935  0.81552170     0.02000
C1031       C  0.78971752  0.90510765  0.81163484    -0.14000
C1032       C  0.80565174  0.89398172  0.82156668    -0.11700
C1033       C  0.81911425  0.90374817  0.83557299     0.01600
C1034       C  0.81583303  0.92469404  0.83996043    -0.23900
H1035       H  0.73498604  0.93823677  0.76633335     0.09600
H1036       H  0.75738978  0.91510029  0.78552843     0.13200
H1037       H  0.75687843  0.98969275  0.80191881     0.11900
H1038       H  0.78228302  0.98510936  0.82868236     0.13100
H1039       H  0.80785363  0.96411399  0.84641990     0.12100
H1040       H  0.78013391  0.89671552  0.80083647     0.09200
H1041       H  0.80762057  0.87779228  0.81803438     0.12500
H1042       H  0.82577461  0.93248577  0.85104199     0.14300
C1043       C  0.90092656  0.17779984  0.68622780    -0.01200
C1044       C  0.90618143  0.19833856  0.68230066    -0.09200
C1045       C  0.91834373  0.20952121  0.69630490    -0.18000
C1046       C  0.92604444  0.20035107  0.71466602     0.04400
C1047       C  0.92002602  0.17976155  0.71896313     0.18500
C1048       C  0.90737834  0.16886490  0.70497112    -0.19500
C1049       C  0.92736288  0.16984358  0.73677880    -0.20700
C1050       C  0.94123368  0.17964430  0.75005217    -0.19300
C1051       C  0.94799464  0.19968787  0.74595807     0.19900
C1052       C  0.94013130  0.21052050  0.72846313     0.02000
C1053       C  0.94724366  0.23082658  0.72520557    -0.14000
C1054       C  0.96231719  0.23952283  0.73804190    -0.11700
C1055       C  0.97074245  0.22847367  0.75468286     0.01600
C1056       C  0.96306891  0.20874196  0.75890493    -0.23900
H1057       H  0.90130994  0.20568744  0.66805105     0.09600
H1058       H  0.92197016  0.22510467  0.69196078     0.13200
H1059       H  0.90348337  0.15296461  0.70823021     0.11900
H1060       H  0.92276720  0.15417067  0.74019071     0.13100
H1061       H  0.94701791  0.17133156  0.76341391     0.12100
H1062       H  0.94173586  0.24030338  0.71267006     0.09200
H1063       H  0.96765611  0.25497759  0.73475037     0.12500
H1064       H  0.96949481  0.20006769  0.77174310     0.14300
C1065       C  0.91901819  0.15408189  0.57094745    -0.01200
C1066       C  0.90914162  0.16431935  0.55464573    -0.09200
C1067       C  0.92059456  0.17452208  0.53951300    -0.18000
C1068       C  0.94247825  0.17521628  0.54051832     0.04400
C1069       C  0.95243508  0.16448770  0.55700994     0.18500
C1070       C  0.94067195  0.15382472  0.57186077    -0.19500
C1071       C  0.97401046  0.16519948  0.55907593    -0.20700
C1072       C  0.98586575  0.17707279  0.54571262    -0.19300
C1073       C  0.97650611  0.18823455  0.52967632     0.19900
C1074       C  0.95476062  0.18692397  0.52637551     0.02000
C1075       C  0.94625355  0.19785378  0.50939088    -0.14000
C1076       C  0.95861389  0.21050980  0.49706596    -0.11700
C1077       C  0.97977892  0.21276305  0.50123849     0.01600
C1078       C  0.98870774  0.20117883  0.51727111    -0.23900
H1079       H  0.89238094  0.16485488  0.55390926     0.09600
H1080       H  0.91182798  0.18235656  0.52768272     0.13200
H1081       H  0.94830724  0.14618285  0.58471218     0.11900
H1082       H  0.98172804  0.15701689  0.57152085     0.13100
H1083       H  0.00246575  0.17779083  0.54815038     0.12100
H1084       H  0.93005147  0.19717984  0.50540376     0.09200
H1085       H  0.95140727  0.21925826  0.48471738     0.12500
H1086       H  0.00516265  0.20262121  0.52037001     0.14300
C1087       C  0.99847371  0.02062348  0.71716436    -0.01200
C1088       C  0.99688921  0.01664839  0.69593007    -0.09200
C1089       C  0.98381252  0.02858858  0.68336999    -0.18000
C1090       C  0.97209066  0.04502482  0.69179428     0.04400
C1091       C  0.97458316  0.04936767  0.71326913     0.18500
C1092       C  0.98751570  0.03714426  0.72563586    -0.19500
C1093       C  0.96390298  0.06569025  0.72245618    -0.20700
C1094       C  0.95033093  0.07760510  0.71091293    -0.19300
C1095       C  0.94691561  0.07332817  0.68995864     0.19900
C1096       C  0.95777630  0.05713127  0.67993035     0.02000
C1097       C  0.95341366  0.05360457  0.65867649    -0.14000
C1098       C  0.93846298  0.06534269  0.64809586    -0.11700
C1099       C  0.92750199  0.08091282  0.65835137     0.01600
C1100       C  0.93224352  0.08500106  0.67916696    -0.23900
H1101       H  0.00533832  0.00390562  0.68916650     0.09600
H1102       H  0.98304627  0.02450765  0.66721236     0.13200
H1103       H  0.98893118  0.04032276  0.74207279     0.11900
H1104       H  0.96590111  0.06914456  0.73876087     0.13100
H1105       H  0.94212284  0.09002749  0.71855310     0.12100
H1106       H  0.96102291  0.04165373  0.64995269     0.09200
H1107       H  0.93518714  0.06193778  0.63200114     0.12500
H1108       H  0.92416027  0.09720707  0.68729226     0.14300
C1109       C  0.82068020  0.18526012  0.59826766    -0.01200
C1110       C  0.80029980  0.18024086  0.59266405    -0.09200
C1111       C  0.78867653  0.19314640  0.57979883    -0.18000
C1112       C  0.79711696  0.21161939  0.57192707     0.04400
C1113       C  0.81747312  0.21709626  0.57834425     0.18500
C1114       C  0.82896272  0.20400823  0.59138909    -0.19500
C1115       C  0.82646910  0.23536801  0.57129234    -0.20700
C1116       C  0.81584486  0.24818032  0.55766958    -0.19300
C1117       C  0.79601246  0.24297831  0.55059444     0.19900
C1118       C  0.78629485  0.22465808  0.55766337     0.02000
C1119       C  0.76638376  0.21998711  0.54974890    -0.14000
C1120       C  0.75676286  0.23274768  0.53521275    -0.11700
C1121       C  0.76648968  0.25066225  0.52810750     0.01600
C1122       C  0.78602689  0.25580706  0.53612270    -0.23900
H1123       H  0.79341230  0.16594240  0.59778363     0.09600
H1124       H  0.77323842  0.18804554  0.57605977     0.13200
H1125       H  0.84468588  0.20815546  0.59560566     0.11900
H1126       H  0.84194561  0.23968624  0.57618134     0.13100
H1127       H  0.82334080  0.26211980  0.55237441     0.12100
H1128       H  0.75792821  0.20643826  0.55423992     0.09200
H1129       H  0.74156238  0.22854104  0.52945763     0.12500
H1130       H  0.79380301  0.26949175  0.53055199     0.14300
C1131       C  0.83436615  0.07442098  0.58120943    -0.01200
C1132       C  0.84445436  0.05765271  0.57196239    -0.09200
C1133       C  0.83323059  0.04283912  0.56070536    -0.18000
C1134       C  0.81144608  0.04437710  0.55832405     0.04400
C1135       C  0.80143686  0.06160316  0.56751246     0.18500
C1136       C  0.81283398  0.07623980  0.57870383    -0.19500
C1137       C  0.78001548  0.06421506  0.56557979    -0.20700
C1138       C  0.76819331  0.05012633  0.55456989    -0.19300
C1139       C  0.77746905  0.03301293  0.54527266     0.19900
C1140       C  0.79917566  0.02967713  0.54709489     0.02000
C1141       C  0.80749381  0.01186369  0.53749313    -0.14000
C1142       C  0.79486451  0.99844994  0.52596039    -0.11700
C1143       C  0.77363642  0.00236476  0.52365049     0.01600
C1144       C  0.76506288  0.01941791  0.53382200    -0.23900
H1145       H  0.86104903  0.05582502  0.57362201     0.09600
H1146       H  0.84199415  0.03035127  0.55406791     0.13200
H1147       H  0.80472510  0.08914679  0.58561544     0.11900
H1148       H  0.77233304  0.07733038  0.57257084     0.13100
H1149       H  0.75165310  0.05270457  0.55322525     0.12100
H1150       H  0.82372812  0.00807706  0.53838452     0.09200
H1151       H  0.80184853  0.98537790  0.51823408     0.12500
H1152       H  0.74857069  0.02235337  0.53246557     0.14300
C1153       C  0.75121833  0.02410631  0.73327751    -0.01200
C1154       C  0.77125705  0.01774420  0.72776542    -0.09200
C1155       C  0.78498013  0.03106662  0.71799050    -0.18000
C1156       C  0.77908077  0.05135338  0.71282397     0.04400
C1157       C  0.75846050  0.05755413  0.71731415     0.18500
C1158       C  0.74489036  0.04411269  0.72776023    -0.19500
C1159       C  0.75149999  0.07705967  0.71114460    -0.20700
C1160       C  0.76442155  0.09030010  0.70020320    -0.19300
C1161       C  0.78492297  0.08474500  0.69588242     0.19900
C1162       C  0.79274516  0.06546546  0.70281584     0.02000
C1163       C  0.81396034  0.06120038  0.69956089    -0.14000
C1164       C  0.82657538  0.07503122  0.68898217    -0.11700
C1165       C  0.81851201  0.09339891  0.68094913     0.01600
C1166       C  0.79766760  0.09826990  0.68458970    -0.23900
H1167       H  0.77643679  0.00217511  0.73079968     0.09600
H1168       H  0.79994219  0.02480772  0.71415013     0.13200
H1169       H  0.72946860  0.04934611  0.73170765     0.11900
H1170       H  0.73579778  0.08194332  0.71441033     0.13100
H1171       H  0.75837770  0.10506788  0.69522591     0.12100
H1172       H  0.82132585  0.04738370  0.70517646     0.09200
H1173       H  0.84264077  0.07095944  0.68643179     0.12500
H1174       H  0.79139975  0.11260695  0.67867490     0.14300
C1175       C  0.77682894  0.73836296  0.96705009    -0.01200
C1176       C  0.79843246  0.73811545  0.96877965    -0.09200
C1177       C  0.81061873  0.75078091  0.95620292    -0.18000
C1178       C  0.80145273  0.76407090  0.94136241     0.04400
C1179       C  0.77960140  0.76309649  0.93874999     0.18500
C1180       C  0.76755798  0.75055820  0.95171653    -0.19500
C1181       C  0.76980762  0.77509919  0.92361372    -0.20700
C1182       C  0.78112355  0.78863969  0.91144222    -0.19300
C1183       C  0.80245132  0.79101275  0.91449689     0.19900
C1184       C  0.81298154  0.77870557  0.92946502     0.02000
C1185       C  0.83434069  0.78241095  0.93262377    -0.14000
C1186       C  0.84445706  0.79829472  0.92216499    -0.11700
C1187       C  0.83392646  0.81053502  0.90770100     0.01600
C1188       C  0.81309631  0.80637269  0.90340555    -0.23900
H1189       H  0.80586015  0.72870710  0.98049033     0.09600
H1190       H  0.82712737  0.75002912  0.95861480     0.13200
H1191       H  0.75081950  0.75063816  0.95024967     0.11900
H1192       H  0.75319119  0.77421953  0.92135785     0.13100
H1193       H  0.77298230  0.79790040  0.90007676     0.12100
H1194       H  0.84342074  0.77392693  0.94375479     0.09200
H1195       H  0.86059278  0.80132072  0.92569238     0.12500
H1196       H  0.80484022  0.81600124  0.89242328     0.14300
C1197       C  0.57188538  0.92057441  0.16127025    -0.01200
C1198       C  0.55483654  0.93011762  0.15170189    -0.09200
C1199       C  0.53953584  0.94003064  0.16354316    -0.18000
C1200       C  0.54079730  0.94064194  0.18544943     0.04400
C1201       C  0.55832816  0.93123538  0.19491764     0.18500
C1202       C  0.57348209  0.92149265  0.18291402    -0.19500
C1203       C  0.56071221  0.93142130  0.21642939    -0.20700
C1204       C  0.54613435  0.94091001  0.22889251    -0.19300
C1205       C  0.52872825  0.95039847  0.22019384     0.19900
C1206       C  0.52555349  0.95028957  0.19839238     0.02000
C1207       C  0.50737035  0.95995218  0.19070674    -0.14000
C1208       C  0.49353423  0.97004539  0.20408901    -0.11700
C1209       C  0.49740313  0.97079829  0.22544404     0.01600
C1210       C  0.51473647  0.96041581  0.23332005    -0.23900
H1211       H  0.55314946  0.92969413  0.13502819     0.09600
H1212       H  0.52685987  0.94699611  0.15518087     0.13200
H1213       H  0.58654023  0.91429151  0.19065488     0.11900
H1214       H  0.57404177  0.92423753  0.22369956     0.13100
H1215       H  0.54857664  0.94093824  0.24549992     0.12100
H1216       H  0.50366570  0.96025065  0.17442549     0.09200
H1217       H  0.48023190  0.97797655  0.19764317     0.12500
H1218       H  0.51766216  0.96064946  0.24986545     0.14300
C1219       C  0.68748480  0.89915097  0.16596144    -0.01200
C1220       C  0.68626760  0.90122825  0.18748049    -0.09200
C1221       C  0.70120476  0.91221992  0.19848790    -0.18000
C1222       C  0.71784992  0.92191463  0.18824939     0.04400
C1223       C  0.71954482  0.91911132  0.16650285     0.18500
C1224       C  0.70457930  0.90756763  0.15563254    -0.19500
C1225       C  0.73562830  0.92861703  0.15563763    -0.20700
C1226       C  0.74942362  0.94174774  0.16573165    -0.19300
C1227       C  0.74759583  0.94554738  0.18697717     0.19900
C1228       C  0.73219821  0.93511820  0.19865209     0.02000
C1229       C  0.73125738  0.93904947  0.22013172    -0.14000
C1230       C  0.74378818  0.95393931  0.22925504    -0.11700
C1231       C  0.75792367  0.96518026  0.21748476     0.01600
C1232       C  0.76043637  0.96036496  0.19651053    -0.23900
H1233       H  0.67336884  0.89471819  0.19588272     0.09600
H1234       H  0.69881295  0.91338637  0.21492877     0.13200
H1235       H  0.70567056  0.90609502  0.13895810     0.11900
H1236       H  0.73713547  0.92642343  0.13908464     0.13100
H1237       H  0.76125539  0.94941021  0.15675294     0.12100
H1238       H  0.72064029  0.93130510  0.23028236     0.09200
H1239       H  0.74201710  0.95715838  0.24561451     0.12500
H1240       H  0.77152958  0.96894724  0.18741375     0.14300
C1241       C  0.71931774  0.99918077  0.02322284    -0.01200
C1242       C  0.70848000  0.00588553  0.04077324    -0.09200
C1243       C  0.69360449  0.99325607  0.05015918    -0.18000
C1244       C  0.68936976  0.97322705  0.04249278     0.04400
C1245       C  0.70010352  0.96673975  0.02447764     0.18500
C1246       C  0.71429470  0.97985550  0.01478807    -0.19500
C1247       C  0.69727756  0.94684936  0.01659959    -0.20700
C1248       C  0.68478435  0.93281497  0.02681312    -0.19300
C1249       C  0.67421153  0.93852879  0.04476022     0.19900
C1250       C  0.67561329  0.95904936  0.05242738     0.02000
C1251       C  0.66352167  0.96421016  0.06991972    -0.14000
C1252       C  0.65162435  0.94927440  0.08004739    -0.11700
C1253       C  0.65167368  0.92877925  0.07326549     0.01600
C1254       C  0.66268100  0.92361900  0.05540204    -0.23900
H1255       H  0.71200335  0.02064483  0.04775486     0.09600
H1256       H  0.68628477  0.99922700  0.06387848     0.13200
H1257       H  0.72194868  0.97463663  0.00083780     0.11900
H1258       H  0.70540877  0.94184774  0.00283983     0.13100
H1259       H  0.68354534  0.91729569  0.02073156     0.12100
H1260       H  0.66316048  0.97958674  0.07623098     0.09200
H1261       H  0.64319383  0.95353735  0.09386207     0.12500
H1262       H  0.66260125  0.90778188  0.05002722     0.14300
C1263       C  0.59903513  0.82122986  0.18154098    -0.01200
C1264       C  0.59586860  0.82871940  0.20166427    -0.09200
C1265       C  0.58546340  0.81691701  0.21641230    -0.18000
C1266       C  0.57781120  0.79709086  0.21149489     0.04400
C1267       C  0.58215760  0.78910584  0.19146235     0.18500
C1268       C  0.59259224  0.80115260  0.17678526    -0.19500
C1269       C  0.57552935  0.76934026  0.18593463    -0.20700
C1270       C  0.56398991  0.75756272  0.19958486    -0.19300
C1271       C  0.55852727  0.76535799  0.21900688     0.19900
C1272       C  0.56553572  0.78512077  0.22541670     0.02000
C1273       C  0.55924542  0.79227917  0.24512470    -0.14000
C1274       C  0.54579262  0.78071790  0.25742319    -0.11700
C1275       C  0.53835591  0.76155483  0.25067798     0.01600
C1276       C  0.54542527  0.75373595  0.23172139    -0.23900
H1277       H  0.60083489  0.84409445  0.20588626     0.09600
H1278       H  0.58334640  0.82387641  0.23140322     0.13200
H1279       H  0.59518732  0.79503615  0.16138980     0.11900
H1280       H  0.57897595  0.76307316  0.17077977     0.13100
H1281       H  0.55877782  0.74246141  0.19466047     0.12100
H1282       H  0.56387236  0.80705738  0.25116585     0.09200
H1283       H  0.54053577  0.78722780  0.27191701     0.12500
H1284       H  0.54020933  0.73872355  0.22651754     0.14300
C1285       C  0.72681863  0.74338908  0.02561865    -0.01200
C1286       C  0.70659903  0.73803054  0.03133832    -0.09200
C1287       C  0.69486192  0.75085666  0.04423484    -0.18000
C1288       C  0.70293927  0.76969716  0.05182210     0.04400
C1289       C  0.72357011  0.77486578  0.04629929     0.18500
C1290       C  0.73524556  0.76172764  0.03354603    -0.19500
C1291       C  0.73238799  0.79331838  0.05324302    -0.20700
C1292       C  0.72100372  0.80707268  0.06514544    -0.19300
C1293       C  0.70053403  0.80268902  0.07057330     0.19900
C1294       C  0.69126232  0.78379746  0.06431049     0.02000
C1295       C  0.67064554  0.78006979  0.07059583    -0.14000
C1296       C  0.65957439  0.79473475  0.08199706    -0.11700
C1297       C  0.66856337  0.81363915  0.08754670     0.01600
C1298       C  0.68920420  0.81731005  0.08198019    -0.23900
H1299       H  0.69956240  0.72408640  0.02538956     0.09600
H1300       H  0.67938364  0.74577697  0.04767847     0.13200
H1301       H  0.75100825  0.76590143  0.02969453     0.11900
H1302       H  0.74813541  0.79731293  0.04915604     0.13100
H1303       H  0.72821984  0.82136705  0.06997371     0.12100
H1304       H  0.66257348  0.76604725  0.06677919     0.09200
H1305       H  0.64370395  0.79136718  0.08612777     0.12500
H1306       H  0.69645878  0.83175034  0.08629875     0.14300
C1307       C  0.32235430  0.58693352  0.16623780    -0.01200
C1308       C  0.30836842  0.59767422  0.17882485    -0.09200
C1309       C  0.29240870  0.58723554  0.18914191    -0.18000
C1310       C  0.28991515  0.56563352  0.18707566     0.04400
C1311       C  0.30391235  0.55501976  0.17389031     0.18500
C1312       C  0.31974297  0.56562971  0.16373800    -0.19500
C1313       C  0.30231586  0.53373159  0.17104086    -0.20700
C1314       C  0.28749093  0.52250301  0.18152849    -0.19300
C1315       C  0.27380786  0.53228516  0.19504801     0.19900
C1316       C  0.27443628  0.55402176  0.19781466     0.02000
C1317       C  0.25981910  0.56292994  0.21149787    -0.14000
C1318       C  0.24590557  0.55059339  0.22261043    -0.11700
C1319       C  0.24621973  0.52912977  0.22042344     0.01600
C1320       C  0.25984458  0.52022374  0.20622555    -0.23900
H1321       H  0.30989999  0.61415417  0.18090416     0.09600
H1322       H  0.28238461  0.59640742  0.19876447     0.13200
H1323       H  0.33018096  0.55709397  0.15379603     0.11900
H1324       H  0.31286516  0.52562438  0.16087169     0.13100
H1325       H  0.28693559  0.50596421  0.17928041     0.12100
H1326       H  0.25906500  0.57930039  0.21419571     0.09200
H1327       H  0.23541661  0.55776156  0.23349729     0.12500
H1328       H  0.25991050  0.50361996  0.20428202     0.14300
C1329       C  0.35333426  0.55829955  0.07347747    -0.01200
C1330       C  0.34718475  0.56197491  0.05297345    -0.09200
C1331       C  0.33498547  0.54775225  0.04216798    -0.18000
C1332       C  0.32821368  0.52933280  0.05164902     0.04400
C1333       C  0.33529849  0.52519699  0.07208694     0.18500
C1334       C  0.34784074  0.53951467  0.08267056    -0.19500
C1335       C  0.32919762  0.50713693  0.08215871    -0.20700
C1336       C  0.31562821  0.49338715  0.07266257    -0.19300
C1337       C  0.30773566  0.49734705  0.05285559     0.19900
C1338       C  0.31415602  0.51522702  0.04191232     0.02000
C1339       C  0.30566005  0.51853479  0.02199099    -0.14000
C1340       C  0.29079499  0.50521884  0.01374581    -0.11700
C1341       C  0.28391650  0.48804231  0.02487198     0.01600
C1342       C  0.29290987  0.48388338  0.04421322    -0.23900
H1343       H  0.35131975  0.57623177  0.04537368     0.09600
H1344       H  0.33069543  0.55189934  0.02659937     0.13200
H1345       H  0.35246207  0.53642382  0.09851451     0.11900
H1346       H  0.33462453  0.50382055  0.09769585     0.13100
H1347       H  0.31091263  0.47976822  0.08107556     0.12100
H1348       H  0.30982648  0.53151051  0.01253964     0.09200
H1349       H  0.28436850  0.50857203  0.99860557     0.12500
H1350       H  0.28763997  0.47068982  0.05298317     0.14300
C1351       C  0.33059315  0.67151568  0.08815581    -0.01200
C1352       C  0.32080937  0.68765291  0.09878867    -0.09200
C1353       C  0.30974345  0.70291888  0.08796123    -0.18000
C1354       C  0.30823991  0.70252474  0.06605933     0.04400
C1355       C  0.31780798  0.68580623  0.05555480     0.18500
C1356       C  0.32861488  0.67065365  0.06654948    -0.19500
C1357       C  0.31683783  0.68429656  0.03399620    -0.20700
C1358       C  0.30659716  0.69911313  0.02245786    -0.19300
C1359       C  0.29702760  0.71581100  0.03217390     0.19900
C1360       C  0.29767619  0.71793634  0.05408610     0.02000
C1361       C  0.28766378  0.73532352  0.06283977    -0.14000
C1362       C  0.27685480  0.74946293  0.05034363    -0.11700
C1363       C  0.27576897  0.74670298  0.02884921     0.01600
C1364       C  0.28638795  0.73014213  0.01994386    -0.23900
H1365       H  0.32196027  0.68867445  0.11548036     0.09600
H1366       H  0.30270056  0.71493136  0.09707568     0.13200
H1367       H  0.33587670  0.65822184  0.05801132     0.11900
H1368       H  0.32411083  0.67154932  0.02595884     0.13100
H1369       H  0.30608052  0.69743789  0.00577050     0.12100
H1370       H  0.28761007  0.73814482  0.07928324     0.09200
H1371       H  0.26863988  0.76210381  0.05756616     0.12500
H1372       H  0.28576930  0.72804198  0.00329068     0.14300
C1373       C  0.40668328  0.67020543  0.17750210    -0.01200
C1374       C  0.40685065  0.66326909  0.19799627    -0.09200
C1375       C  0.41797156  0.67391059  0.21332856    -0.18000
C1376       C  0.42910090  0.69205693  0.20857496     0.04400
C1377       C  0.42740716  0.69984271  0.18805304     0.18500
C1378       C  0.41667131  0.68868650  0.17270726    -0.19500
C1379       C  0.43693192  0.71843306  0.18280754    -0.20700
C1380       C  0.44866959  0.72917746  0.19730376    -0.19300
C1381       C  0.45190272  0.72118897  0.21716972     0.19900
C1382       C  0.44223523  0.70251121  0.22316402     0.02000
C1383       C  0.44698018  0.69470134  0.24309261    -0.14000
C1384       C  0.46148890  0.70451241  0.25601642    -0.11700
C1385       C  0.47135911  0.72273888  0.24982328     0.01600
C1386       C  0.46555920  0.73139004  0.23069792    -0.23900
H1387       H  0.39919161  0.64898729  0.20196080     0.09600
H1388       H  0.41779152  0.66748079  0.22869497     0.13200
H1389       H  0.41646112  0.69413612  0.15685218     0.11900
H1390       H  0.43545755  0.72462150  0.16730554     0.13100
H1391       H  0.45599800  0.74343193  0.19264808     0.12100
H1392       H  0.44048597  0.68048920  0.24868947     0.09200
H1393       H  0.46556141  0.69727725  0.27055123     0.12500
H1394       H  0.47227426  0.74587021  0.22585827     0.14300
C1395       C  0.56827246  0.84928633  0.07033718    -0.01200
C1396       C  0.57380824  0.85038634  0.04949154    -0.09200
C1397       C  0.56295747  0.83905187  0.03456181    -0.18000
C1398       C  0.54609387  0.82635612  0.04017083     0.04400
C1399       C  0.53938554  0.82697016  0.06109552     0.18500
C1400       C  0.55072001  0.83806143  0.07599072    -0.19500
C1401       C  0.52191825  0.81584052  0.06718280    -0.20700
C1402       C  0.51145813  0.80336166  0.05312067    -0.19300
C1403       C  0.51868820  0.80110533  0.03285472     0.19900
C1404       C  0.53607114  0.81259495  0.02602576     0.02000
C1405       C  0.54332320  0.80894579  0.00572473    -0.14000
C1406       C  0.53412994  0.79402878  0.99305094    -0.11700
C1407       C  0.51714939  0.78252027  0.99993909     0.01600
C1408       C  0.50913559  0.78672489  0.01967510    -0.23900
H1409       H  0.58736204  0.85904005  0.04491053     0.09600
H1410       H  0.56835593  0.84021464  0.01885375     0.13200
H1411       H  0.54637939  0.83733755  0.09216695     0.11900
H1412       H  0.51650403  0.81653334  0.08301708     0.13100
H1413       H  0.49814941  0.79471759  0.05839561     0.12100
H1414       H  0.55666041  0.81670741  0.99953227     0.09200
H1415       H  0.54087996  0.79100581  0.97804555     0.12500
H1416       H  0.49571716  0.77835101  0.02510077     0.14300
C1417       C  0.48561194  0.71199820  0.99586245    -0.01200
C1418       C  0.46746265  0.70242098  0.98876673    -0.09200
C1419       C  0.45783972  0.68709606  0.00040857    -0.18000
C1420       C  0.46581730  0.68111529  0.01992382     0.04400
C1421       C  0.48485129  0.68997660  0.02651045     0.18500
C1422       C  0.49472709  0.70487880  0.01430417    -0.19500
C1423       C  0.49337291  0.68474456  0.04575946    -0.20700
C1424       C  0.48267937  0.67198698  0.05925726    -0.19300
C1425       C  0.46335400  0.66389369  0.05370375     0.19900
C1426       C  0.45503639  0.66763756  0.03363841     0.02000
C1427       C  0.43581294  0.65849985  0.02857692    -0.14000
C1428       C  0.42456752  0.64760648  0.04333443    -0.11700
C1429       C  0.43207662  0.64526410  0.06359464     0.01600
C1430       C  0.45188822  0.65280822  0.06841417    -0.23900
H1431       H  0.45998858  0.70748088  0.97463127     0.09600
H1432       H  0.44365391  0.68095856  0.99413054     0.13200
H1433       H  0.50914261  0.71158975  0.01967875     0.11900
H1434       H  0.50800029  0.69126758  0.05078389     0.13100
H1435       H  0.48929249  0.66893085  0.07438952     0.12100
H1436       H  0.42877258  0.65991770  0.01350687     0.09200
H1437       H  0.40951457  0.64162382  0.03897905     0.12500
H1438       H  0.45807896  0.65080499  0.08390401     0.14300
C1439       C  0.43668312  0.57358983  0.15876288    -0.01200
C1440       C  0.45724314  0.57063520  0.15267678    -0.09200
C1441       C  0.47136859  0.56068412  0.16580620    -0.18000
C1442       C  0.46541034  0.55407547  0.18578440     0.04400
C1443       C  0.44467405  0.55796178  0.19204616     0.18500
C1444       C  0.43047901  0.56705626  0.17836030    -0.19500
C1445       C  0.43827481  0.55315671  0.21209399    -0.20700
C1446       C  0.45201528  0.54445932  0.22614057    -0.19300
C1447       C  0.47223653  0.53955732  0.22021463     0.19900
C1448       C  0.47921380  0.54398700  0.19989425     0.02000
C1449       C  0.49946291  0.53763149  0.19452015    -0.14000
C1450       C  0.51191363  0.52672997  0.20854691    -0.11700
C1451       C  0.50486619  0.52229648  0.22856767     0.01600
C1452       C  0.48526258  0.52959687  0.23441121    -0.23900
H1453       H  0.46237100  0.57600739  0.13769532     0.09600
H1454       H  0.48695071  0.55890062  0.16016476     0.13200
H1455       H  0.41470658  0.56993221  0.18331936     0.11900
H1456       H  0.42257239  0.55634794  0.21702292     0.13100
H1457       H  0.44660102  0.54102015  0.24160200     0.12100
H1458       H  0.50574457  0.54006652  0.17929820     0.09200
H1459       H  0.52679689  0.52113148  0.20334231     0.12500
H1460       H  0.47974324  0.52698778  0.24999388     0.14300
C1461       C  0.28901787  0.49662350  0.47240327    -0.01200
C1462       C  0.30494239  0.48575396  0.48228060    -0.09200
C1463       C  0.31841733  0.47323844  0.47096813    -0.18000
C1464       C  0.31592445  0.47074756  0.44934546     0.04400
C1465       C  0.30019164  0.48255218  0.43933992     0.18500
C1466       C  0.28716869  0.49557650  0.45086928    -0.19500
C1467       C  0.29677974  0.48043489  0.41805497    -0.20700
C1468       C  0.30776294  0.46595213  0.40666095    -0.19300
C1469       C  0.32267559  0.45346228  0.41619827     0.19900
C1470       C  0.32761043  0.45617493  0.43748550     0.02000
C1471       C  0.34344261  0.44358254  0.44604062    -0.14000
C1472       C  0.35300214  0.42815071  0.43423592    -0.11700
C1473       C  0.34694617  0.42472152  0.41372127     0.01600
C1474       C  0.33215438  0.43774363  0.40468752    -0.23900
H1475       H  0.30649118  0.48640857  0.49897030     0.09600
H1476       H  0.33000488  0.46500455  0.47970589     0.13200
H1477       H  0.27467266  0.50384518  0.44327165     0.11900
H1478       H  0.28496250  0.48948479  0.41030437     0.13100
H1479       H  0.30419822  0.46415423  0.39035102     0.12100
H1480       H  0.34850484  0.44504136  0.46188535     0.09200
H1481       H  0.36449058  0.41828515  0.44142803     0.12500
H1482       H  0.32765562  0.43528041  0.38867547     0.14300
C1483       C  0.42853777  0.40999502  0.33577825    -0.01200
C1484       C  0.44348954  0.42056768  0.34743836    -0.09200
C1485       C  0.45950656  0.43130282  0.33764827    -0.18000
C1486       C  0.46105875  0.43169049  0.31578838     0.04400
C1487       C  0.44603323  0.42054805  0.30417579     0.18500
C1488       C  0.43012157  0.40997075  0.31415894    -0.19500
C1489       C  0.44673397  0.42013932  0.28256533    -0.20700
C1490       C  0.46173806  0.43109546  0.27206095    -0.19300
C1491       C  0.47639550  0.44271663  0.28291686     0.19900
C1492       C  0.47660562  0.44298434  0.30493195     0.02000
C1493       C  0.49204868  0.45494454  0.31493937    -0.14000
C1494       C  0.50591669  0.46692509  0.30348682    -0.11700
C1495       C  0.50477916  0.46724525  0.28186546     0.01600
C1496       C  0.49043266  0.45463430  0.27173460    -0.23900
H1497       H  0.44273027  0.42068596  0.36417441     0.09600
H1498       H  0.47034396  0.43924028  0.34756232     0.13200
H1499       H  0.41886503  0.40161983  0.30489935     0.11900
H1500       H  0.43538298  0.41152344  0.27368901     0.13100
H1501       H  0.46163693  0.43077977  0.25528885     0.12100
H1502       H  0.49345255  0.45573790  0.33154413     0.09200
H1503       H  0.51698764  0.47659936  0.31154367     0.12500
H1504       H  0.48975370  0.45469335  0.25495282     0.14300
C1505       C  0.32425833  0.31227972  0.40379875    -0.01200
C1506       C  0.32846677  0.31464360  0.42487671    -0.09200
C1507       C  0.32101934  0.30054953  0.43923506    -0.18000
C1508       C  0.30873722  0.28364134  0.43292114     0.04400
C1509       C  0.30386254  0.28171561  0.41149523     0.18500
C1510       C  0.31204391  0.29575878  0.39706528    -0.19500
C1511       C  0.29080764  0.26585796  0.40469560    -0.20700
C1512       C  0.28231977  0.25199952  0.41872931    -0.19300
C1513       C  0.28712349  0.25328372  0.43985337     0.19900
C1514       C  0.30079204  0.26886080  0.44717003     0.02000
C1515       C  0.30588297  0.26900453  0.46847146    -0.14000
C1516       C  0.29677769  0.25514168  0.48209592    -0.11700
C1517       C  0.28244907  0.24053624  0.47505566     0.01600
C1518       C  0.27808745  0.23931036  0.45380159    -0.23900
H1519       H  0.33808655  0.32725943  0.43023597     0.09600
H1520       H  0.32497664  0.30348844  0.45517340     0.13200
H1521       H  0.30884852  0.29393521  0.38067902     0.11900
H1522       H  0.28688832  0.26434202  0.38844091     0.13100
H1523       H  0.27196585  0.24014517  0.41300401     0.12100
H1524       H  0.31681168  0.27965825  0.47514172     0.09200
H1525       H  0.30077130  0.25601556  0.49837762     0.12500
H1526       H  0.26708229  0.22796421  0.44822824     0.14300
C1527       C  0.31265881  0.39926936  0.31903648    -0.01200
C1528       C  0.31620486  0.40345139  0.29810268    -0.09200
C1529       C  0.30257579  0.41586522  0.28677479    -0.18000
C1530       C  0.28498062  0.42489540  0.29615620     0.04400
C1531       C  0.28143230  0.42061881  0.31740239     0.18500
C1532       C  0.29501333  0.40768721  0.32848020    -0.19500
C1533       C  0.26467448  0.42973255  0.32763587    -0.20700
C1534       C  0.25155578  0.44335667  0.31733660    -0.19300
C1535       C  0.25464219  0.44798953  0.29643471     0.19900
C1536       C  0.27116368  0.43849225  0.28543092     0.02000
C1537       C  0.27329840  0.44326190  0.26423058    -0.14000
C1538       C  0.26036099  0.45763938  0.25470305    -0.11700
C1539       C  0.24475827  0.46775034  0.26580525     0.01600
C1540       C  0.24160198  0.46243005  0.28656718    -0.23900
H1541       H  0.32975359  0.39727245  0.29045369     0.09600
H1542       H  0.30656839  0.41851061  0.27083955     0.13200
H1543       H  0.29227041  0.40486845  0.34476983     0.11900
H1544       H  0.26191285  0.42659716  0.34385478     0.13100
H1545       H  0.23898512  0.45043950  0.32583476     0.12100
H1546       H  0.28492568  0.43628736  0.25458629     0.09200
H1547       H  0.26278659  0.46113671  0.23850856     0.12500
H1548       H  0.22953458  0.47013682  0.29526126     0.14300
C1549       C  0.45280304  0.25711645  0.23275027    -0.01200
C1550       C  0.44788007  0.27747006  0.22743319    -0.09200
C1551       C  0.43462110  0.28926552  0.23977557    -0.18000
C1552       C  0.42592072  0.28107159  0.25805743     0.04400
C1553       C  0.42993466  0.26001562  0.26262256     0.18500
C1554       C  0.44312842  0.24829968  0.24996948    -0.19500
C1555       C  0.42145742  0.25096659  0.28028344    -0.20700
C1556       C  0.40999122  0.26264078  0.29417315    -0.19300
C1557       C  0.40668911  0.28366791  0.29076179     0.19900
C1558       C  0.41411777  0.29312199  0.27240412     0.02000
C1559       C  0.41009689  0.31438122  0.26969845    -0.14000
C1560       C  0.40010082  0.32589678  0.28503299    -0.11700
C1561       C  0.39369572  0.31669531  0.30355698     0.01600
C1562       C  0.39661233  0.29542118  0.30601222    -0.23900
H1563       H  0.45508982  0.28466545  0.21419476     0.09600
H1564       H  0.43200882  0.30492818  0.23494461     0.13200
H1565       H  0.44646997  0.23242057  0.25395575     0.11900
H1566       H  0.42423384  0.23486215  0.28371120     0.13100
H1567       H  0.40415101  0.25527718  0.30799962     0.12100
H1568       H  0.41493889  0.32267611  0.25613984     0.09200
H1569       H  0.39801438  0.34227153  0.28262081     0.12500
H1570       H  0.39158161  0.28803718  0.32015322     0.14300
C1571       C  0.41882486  0.32852653  0.41869523    -0.01200
C1572       C  0.41769326  0.30695411  0.41873812    -0.09200
C1573       C  0.42742464  0.29533027  0.43398253    -0.18000
C1574       C  0.43891568  0.30479709  0.44998599     0.04400
C1575       C  0.44080993  0.32661776  0.44967492     0.18500
C1576       C  0.43059336  0.33831262  0.43422879    -0.19500
C1577       C  0.45294797  0.33650854  0.46473928    -0.20700
C1578       C  0.46340138  0.32517099  0.47988821    -0.19300
C1579       C  0.46160916  0.30367100  0.48069490     0.19900
C1580       C  0.44892093  0.29326051  0.46598973     0.02000
C1581       C  0.44687142  0.27166382  0.46782976    -0.14000
C1582       C  0.45802912  0.26073778  0.48265871    -0.11700
C1583       C  0.47138556  0.27082337  0.49637960     0.01600
C1584       C  0.47276755  0.29238162  0.49575206    -0.23900
H1585       H  0.40890258  0.29879715  0.40700226     0.09600
H1586       H  0.42576821  0.27889967  0.43259870     0.13200
H1587       H  0.43178588  0.35495856  0.43433850     0.11900
H1588       H  0.45460028  0.35311170  0.46464090     0.13100
H1589       H  0.47295862  0.33328302  0.49105337     0.12100
H1590       H  0.43695124  0.26265291  0.45793081     0.09200
H1591       H  0.45672381  0.24410243  0.48301817     0.12500
H1592       H  0.48318832  0.30022401  0.50633536     0.14300
C1593       C  0.56935164  0.08306298  0.33856498    -0.01200
C1594       C  0.56082923  0.06575731  0.34814866    -0.09200
C1595       C  0.54554720  0.05406399  0.33802664    -0.18000
C1596       C  0.53830346  0.05949408  0.31798559     0.04400
C1597       C  0.54631156  0.07773299  0.30896082     0.18500
C1598       C  0.56154533  0.08920758  0.31924295    -0.19500
C1599       C  0.53954531  0.08420248  0.28942279    -0.20700
C1600       C  0.52545013  0.07252999  0.27818542    -0.19300
C1601       C  0.51779130  0.05408527  0.28619444     0.19900
C1602       C  0.52382891  0.04737589  0.30632831     0.02000
C1603       C  0.51555762  0.02854944  0.31355644    -0.14000
C1604       C  0.50235726  0.01670969  0.30109358    -0.11700
C1605       C  0.49696418  0.02327562  0.28119739     0.01600
C1606       C  0.50451588  0.04203193  0.27390227    -0.23900
H1607       H  0.56650025  0.06083582  0.36314493     0.09600
H1608       H  0.53996348  0.04069052  0.34610282     0.13200
H1609       H  0.56771988  0.10287923  0.31188859     0.11900
H1610       H  0.54550584  0.09821918  0.28259856     0.13100
H1611       H  0.52080587  0.07777716  0.26293941     0.12100
H1612       H  0.51933544  0.02237736  0.32857306     0.09200
H1613       H  0.49674723  0.00207581  0.30679687     0.12500
H1614       H  0.50042525  0.04696636  0.25838180     0.14300
C1615       C  0.75127704  0.02702416  0.26199762    -0.01200
C1616       C  0.73210266  0.01954744  0.26893681    -0.09200
C1617       C  0.71802536  0.03229452  0.27897972    -0.18000
C1618       C  0.72279974  0.05305031  0.28319999     0.04400
C1619       C  0.74286021  0.06025356  0.27794026     0.18500
C1620       C  0.75669622  0.04742986  0.26700102    -0.19500
C1621       C  0.74893165  0.08016235  0.28374752    -0.20700
C1622       C  0.73554624  0.09291915  0.29481225    -0.19300
C1623       C  0.71538232  0.08648989  0.29941514     0.19900
C1624       C  0.70852765  0.06669461  0.29299236     0.02000
C1625       C  0.68755085  0.06150936  0.29628018    -0.14000
C1626       C  0.67421403  0.07502503  0.30640792    -0.11700
C1627       C  0.68132925  0.09396998  0.31393483     0.01600
C1628       C  0.70194627  0.09969631  0.31032219    -0.23900
H1629       H  0.72781146  0.00358666  0.26674850     0.09600
H1630       H  0.70374044  0.02526132  0.28382832     0.13200
H1631       H  0.77152677  0.05349402  0.26219901     0.11900
H1632       H  0.76426814  0.08576813  0.28004519     0.13100
H1633       H  0.74087438  0.10805937  0.29946806     0.12100
H1634       H  0.68089176  0.04725888  0.29086584     0.09200
H1635       H  0.65833317  0.07032259  0.30892503     0.12500
H1636       H  0.70745132  0.11450141  0.31582649     0.14300
C1637       C  0.67640232  0.19102479  0.38812337    -0.01200
C1638       C  0.69772253  0.18825891  0.39101729    -0.09200
C1639       C  0.70911628  0.20176147  0.40344496    -0.18000
C1640       C  0.69940212  0.21835480  0.41380785     0.04400
C1641       C  0.67805446  0.22192776  0.40969603     0.18500
C1642       C  0.66685951  0.20844450  0.39679296    -0.19500
C1643       C  0.66777363  0.23836562  0.41924990    -0.20700
C1644       C  0.67802532  0.25086247  0.43348449    -0.19300
C1645       C  0.69876734  0.24713379  0.43865691     0.19900
C1646       C  0.70985361  0.23099259  0.42868620     0.02000
C1647       C  0.73065047  0.22761898  0.43474680    -0.14000
C1648       C  0.73972934  0.23918673  0.45056076    -0.11700
C1649       C  0.72861359  0.25470515  0.46069055     0.01600
C1650       C  0.70828455  0.25896717  0.45430201    -0.23900
H1651       H  0.70555403  0.17515542  0.38420007     0.09600
H1652       H  0.72537482  0.19840261  0.40509443     0.13200
H1653       H  0.65037372  0.21083234  0.39459281     0.11900
H1654       H  0.65153874  0.24127817  0.41606844     0.13100
H1655       H  0.66949471  0.26317694  0.44093406     0.12100
H1656       H  0.74018409  0.21579621  0.42798443     0.09200
H1657       H  0.75554586  0.23581392  0.45509771     0.12500
H1658       H  0.69955708  0.27087962  0.46218806     0.14300
C1659       C  0.51899524  0.21714991  0.23546544    -0.01200
C1660       C  0.52870181  0.19876314  0.22950931    -0.09200
C1661       C  0.54441015  0.19006137  0.24171185    -0.18000
C1662       C  0.55091828  0.19953048  0.26040712     0.04400
C1663       C  0.54121425  0.21834171  0.26614172     0.18500
C1664       C  0.52563425  0.22695053  0.25367383    -0.19500
C1665       C  0.54686257  0.22838736  0.28447849    -0.20700
C1666       C  0.56157506  0.21987325  0.29764943    -0.19300
C1667       C  0.57112206  0.20116096  0.29275686     0.19900
C1668       C  0.56628816  0.19087411  0.27388594     0.02000
C1669       C  0.57673173  0.17218548  0.26964611    -0.14000
C1670       C  0.59041343  0.16354598  0.28407059    -0.11700
C1671       C  0.59426107  0.17323938  0.30313029     0.01600
C1672       C  0.58499735  0.19237739  0.30702814    -0.23900
H1673       H  0.52384881  0.19084141  0.21554806     0.09600
H1674       H  0.55093126  0.17577711  0.23626103     0.13200
H1675       H  0.51862983  0.24144597  0.25820842     0.11900
H1676       H  0.53956537  0.24277944  0.28886502     0.13100
H1677       H  0.56528062  0.22784350  0.31194358     0.12100
H1678       H  0.57431223  0.16364510  0.25553067     0.09200
H1679       H  0.59741633  0.14879444  0.28054479     0.12500
H1680       H  0.58793016  0.20014092  0.32161822     0.14300
C1681       C  0.58317288  0.16219424  0.42123645    -0.01200
C1682       C  0.57455329  0.15136384  0.43785418    -0.09200
C1683       C  0.56433823  0.16187401  0.45387293    -0.18000
C1684       C  0.56254481  0.18364506  0.45375887     0.04400
C1685       C  0.57177102  0.19443176  0.43706815     0.18500
C1686       C  0.58175351  0.18375120  0.42117709    -0.19500
C1687       C  0.57092609  0.21592108  0.43611404    -0.20700
C1688       C  0.56061111  0.22707101  0.45115519    -0.19300
C1689       C  0.55072901  0.21699903  0.46742544     0.19900
C1690       C  0.55169261  0.19518154  0.46923928     0.02000
C1691       C  0.54125900  0.18601352  0.48611771    -0.14000
C1692       C  0.52943870  0.19796336  0.49981382    -0.11700
C1693       C  0.52783292  0.21932439  0.49717815     0.01600
C1694       C  0.53920139  0.22872264  0.48143844    -0.23900
H1695       H  0.57564079  0.13473329  0.43846108     0.09600
H1696       H  0.55798164  0.15259385  0.46610235     0.13200
H1697       H  0.58857081  0.19246911  0.40864677     0.11900
H1698       H  0.57810205  0.22418187  0.42347889     0.13100
H1699       H  0.55996048  0.24369615  0.44978257     0.12100
H1700       H  0.54142501  0.16962196  0.48871682     0.09200
H1701       H  0.52080279  0.19037606  0.51192623     0.12500
H1702       H  0.53837751  0.24530803  0.47958827     0.14300
C1703       C  0.72081727  0.00174197  0.46799554    -0.01200
C1704       C  0.73099172  0.01324882  0.45290456    -0.09200
C1705       C  0.72033250  0.02775094  0.44110089    -0.18000
C1706       C  0.69899755  0.03149910  0.44426730     0.04400
C1707       C  0.68844193  0.01899751  0.45885700     0.18500
C1708       C  0.69942012  0.00423924  0.47059319    -0.19500
C1709       C  0.66715043  0.02171617  0.46196412    -0.20700
C1710       C  0.65613401  0.03662658  0.45094423    -0.19300
C1711       C  0.66619533  0.04952719  0.43684870     0.19900
C1712       C  0.68785654  0.04729721  0.43358092     0.02000
C1713       C  0.69757458  0.06126560  0.42005525    -0.14000
C1714       C  0.68625381  0.07633127  0.40972695    -0.11700
C1715       C  0.66476356  0.07814576  0.41226985     0.01600
C1716       C  0.65480719  0.06471322  0.42603176    -0.23900
H1717       H  0.74752172  0.01143485  0.45070266     0.09600
H1718       H  0.72934959  0.03592512  0.42981353     0.13200
H1719       H  0.69155094  0.99539137  0.48238823     0.11900
H1720       H  0.65895166  0.01224357  0.47300823     0.13100
H1721       H  0.63966523  0.03824381  0.45365770     0.12100
H1722       H  0.71398860  0.06114229  0.41720574     0.09200
H1723       H  0.69451586  0.08647057  0.39935794     0.12500
H1724       H  0.63825001  0.06607773  0.42835844     0.14300
C1725       C  0.16860256  0.41568732  0.57585326    -0.01200
C1726       C  0.15849988  0.43249447  0.56666689    -0.09200
C1727       C  0.16963117  0.44697144  0.55505309    -0.18000
C1728       C  0.19134644  0.44512818  0.55242462     0.04400
C1729       C  0.20128533  0.42770075  0.56131137     0.18500
C1730       C  0.18994573  0.41327338  0.57262218    -0.19500
C1731       C  0.22264999  0.42487548  0.55929971    -0.20700
C1732       C  0.23456222  0.43918365  0.54886931    -0.19300
C1733       C  0.22540790  0.45664221  0.54009923     0.19900
C1734       C  0.20367901  0.45992111  0.54158762     0.02000
C1735       C  0.19543995  0.47792824  0.53232710    -0.14000
C1736       C  0.20824682  0.49187243  0.52188019    -0.11700
C1737       C  0.22962770  0.48837059  0.52033274     0.01600
C1738       C  0.23801887  0.47080914  0.52978706    -0.23900
H1739       H  0.14202592  0.43471691  0.56880456     0.09600
H1740       H  0.16090555  0.45960360  0.54860784     0.13200
H1741       H  0.19805155  0.40029520  0.57943211     0.11900
H1742       H  0.23026359  0.41157759  0.56603816     0.13100
H1743       H  0.25110227  0.43659079  0.54770362     0.12100
H1744       H  0.17915813  0.48156056  0.53277938     0.09200
H1745       H  0.20130381  0.50522176  0.51459532     0.12500
H1746       H  0.25457837  0.46811519  0.52915501     0.14300
C1747       C  0.10643507  0.31761124  0.68740602    -0.01200
C1748       C  0.10298848  0.29658329  0.68407250    -0.09200
C1749       C  0.09153250  0.28499513  0.69809464    -0.18000
C1750       C  0.08272848  0.29421937  0.71584757     0.04400
C1751       C  0.08722511  0.31530347  0.71976227     0.18500
C1752       C  0.09918264  0.32668153  0.70572264    -0.19500
C1753       C  0.07899806  0.32515247  0.73717741    -0.20700
C1754       C  0.06564799  0.31475765  0.75035041    -0.19300
C1755       C  0.06018714  0.29426126  0.74642846     0.19900
C1756       C  0.06895714  0.28355428  0.72934307     0.02000
C1757       C  0.06286500  0.26289223  0.72602234    -0.14000
C1758       C  0.04794392  0.25366405  0.73844591    -0.11700
C1759       C  0.03885089  0.26449002  0.75478380     0.01600
C1760       C  0.04544114  0.28460482  0.75907240    -0.23900
H1761       H  0.10871236  0.28911628  0.67022663     0.09600
H1762       H  0.08935884  0.26900527  0.69423071     0.13200
H1763       H  0.10182292  0.34294028  0.70851721     0.11900
H1764       H  0.08247699  0.34118039  0.74033521     0.13100
H1765       H  0.05913706  0.32297379  0.76340759     0.12100
H1766       H  0.06894130  0.25356023  0.71366964     0.09200
H1767       H  0.04327999  0.23797562  0.73512240     0.12500
H1768       H  0.03839387  0.29304862  0.77171003     0.14300
C1769       C  0.02469055  0.27545859  0.50427236    -0.01200
C1770       C  0.04346620  0.28399037  0.49761180    -0.09200
C1771       C  0.05444807  0.29790769  0.51006824    -0.18000
C1772       C  0.04719228  0.30352603  0.52992666     0.04400
C1773       C  0.02805271  0.29505318  0.53651600     0.18500
C1774       C  0.01686081  0.28164908  0.52356397    -0.19500
C1775       C  0.02049181  0.29940753  0.55631474    -0.20700
C1776       C  0.03206171  0.31112655  0.57016982    -0.19300
C1777       C  0.05116008  0.31937101  0.56434076     0.19900
C1778       C  0.05861132  0.31646753  0.54384938     0.02000
C1779       C  0.07739443  0.32626187  0.53843501    -0.14000
C1780       C  0.08892381  0.33723246  0.55315689    -0.11700
C1781       C  0.08220889  0.33861499  0.57364322     0.01600
C1782       C  0.06315275  0.33002401  0.57907555    -0.23900
H1783       H  0.05011104  0.27941737  0.48295869     0.09600
H1784       H  0.06896599  0.30338694  0.50405859     0.13200
H1785       H  0.00212432  0.27568719  0.52879262     0.11900
H1786       H  0.00586025  0.29306802  0.56139920     0.13100
H1787       H  0.02613383  0.31355969  0.58564507     0.12100
H1788       H  0.08367314  0.32551092  0.52303100     0.09200
H1789       H  0.10363414  0.34387303  0.54874372     0.12500
H1790       H  0.05790004  0.33125286  0.59494777     0.14300
C1791       C  0.19060660  0.39937229  0.67772875    -0.01200
C1792       C  0.18616714  0.40328383  0.69855845    -0.09200
C1793       C  0.19925488  0.41554150  0.71065485    -0.18000
C1794       C  0.21720343  0.42468516  0.70218763     0.04400
C1795       C  0.22170343  0.42065824  0.68106036     0.18500
C1796       C  0.20865586  0.40784900  0.66919767    -0.19500
C1797       C  0.23883232  0.42996737  0.67171774    -0.20700
C1798       C  0.25121831  0.44375065  0.68271498    -0.19300
C1799       C  0.24707219  0.44826223  0.70347898     0.19900
C1800       C  0.23037183  0.43829286  0.71367736     0.02000
C1801       C  0.22737698  0.44265159  0.73486673    -0.14000
C1802       C  0.23945131  0.45730630  0.74506344    -0.11700
C1803       C  0.25498413  0.46818183  0.73465567     0.01600
C1804       C  0.25918585  0.46306482  0.71399220    -0.23900
H1805       H  0.17232732  0.39701554  0.70553622     0.09600
H1806       H  0.19452570  0.41805309  0.72641853     0.13200
H1807       H  0.21213681  0.40517932  0.65301656     0.11900
H1808       H  0.24237355  0.42697128  0.65561496     0.13100
H1809       H  0.26401266  0.45109609  0.67485163     0.12100
H1810       H  0.21573647  0.43510249  0.74400069     0.09200
H1811       H  0.23638565  0.46038865  0.76124391     0.12500
H1812       H  0.27131971  0.47118626  0.70584925     0.14300
C1813       C  0.18345625  0.30513313  0.60256512    -0.01200
C1814       C  0.20495401  0.30773464  0.60135790    -0.09200
C1815       C  0.21731627  0.29335986  0.59107225    -0.18000
C1816       C  0.20848951  0.27593872  0.58126381     0.04400
C1817       C  0.18679458  0.27288643  0.58330086     0.18500
C1818       C  0.17460235  0.28726795  0.59406795    -0.19500
C1819       C  0.17722762  0.25596448  0.57382546    -0.20700
C1820       C  0.18855110  0.24254385  0.56147361    -0.19300
C1821       C  0.20974888  0.24563901  0.55838148     0.19900
C1822       C  0.22017886  0.26201693  0.56870555     0.02000
C1823       C  0.24167111  0.26425377  0.56524225    -0.14000
C1824       C  0.25194029  0.25182013  0.55093375    -0.11700
C1825       C  0.24130154  0.23654506  0.53987489     0.01600
C1826       C  0.22038360  0.23300821  0.54427577    -0.23900
H1827       H  0.21226739  0.32123189  0.60800047     0.09600
H1828       H  0.23363704  0.29668677  0.59054674     0.13200
H1829       H  0.15799722  0.28500778  0.59493047     0.11900
H1830       H  0.16072744  0.25345006  0.57544905     0.13100
H1831       H  0.18054501  0.22997832  0.55382220     0.12100
H1832       H  0.25088123  0.27582870  0.57288710     0.09200
H1833       H  0.26823718  0.25449802  0.54810053     0.12500
H1834       H  0.21204961  0.22119699  0.53578124     0.14300
C1835       C  0.00333761  0.47044349  0.71569546    -0.01200
C1836       C  0.00069206  0.46905701  0.69416343    -0.09200
C1837       C  0.01493755  0.45808045  0.68196071    -0.18000
C1838       C  0.03238592  0.44826600  0.69101253     0.04400
C1839       C  0.03452235  0.44940489  0.71289972     0.18500
C1840       C  0.01999807  0.45999988  0.72484186    -0.19500
C1841       C  0.05135769  0.44023539  0.72293141    -0.20700
C1842       C  0.06638949  0.43001920  0.71171606    -0.19300
C1843       C  0.06488683  0.42855264  0.69019002     0.19900
C1844       C  0.04790194  0.43749281  0.67937875     0.02000
C1845       C  0.04740657  0.43521100  0.65754170    -0.14000
C1846       C  0.06308746  0.42436961  0.64705581    -0.11700
C1847       C  0.07969999  0.41555596  0.65799341     0.01600
C1848       C  0.08040235  0.41796709  0.67954673    -0.23900
H1849       H  0.98790324  0.47690643  0.68667065     0.09600
H1850       H  0.01214141  0.45781371  0.66550051     0.13200
H1851       H  0.02186013  0.46029432  0.74152857     0.11900
H1852       H  0.05302868  0.44113175  0.73960939     0.13100
H1853       H  0.07931575  0.42317344  0.71998227     0.12100
H1854       H  0.03502594  0.44149737  0.64823964     0.09200
H1855       H  0.06204222  0.42264414  0.63041556     0.12500
H1856       H  0.09310777  0.41133341  0.68832596     0.14300
C1857       C  0.68242513  0.48773309  0.24457333    -0.01200
C1858       C  0.67156645  0.46986518  0.24989493    -0.09200
C1859       C  0.65002690  0.47015554  0.25189605    -0.18000
C1860       C  0.63856911  0.48849002  0.24870437     0.04400
C1861       C  0.64966409  0.50649935  0.24305244     0.18500
C1862       C  0.67126244  0.50590596  0.24084971    -0.19500
C1863       C  0.63919926  0.52512092  0.23991595    -0.20700
C1864       C  0.61790321  0.52636658  0.24255213    -0.19300
C1865       C  0.60648355  0.50895432  0.24810146     0.19900
C1866       C  0.61658430  0.48970402  0.25106928     0.02000
C1867       C  0.60419558  0.47254357  0.25617834    -0.14000
C1868       C  0.58274421  0.47441004  0.25807052    -0.11700
C1869       C  0.57279985  0.49345919  0.25530182     0.01600
C1870       C  0.58494336  0.51070775  0.25052515    -0.23900
H1871       H  0.67981626  0.45568652  0.25310631     0.09600
H1872       H  0.64286807  0.45586545  0.25632946     0.13200
H1873       H  0.67945555  0.51975251  0.23637864     0.11900
H1874       H  0.64758171  0.53889578  0.23559423     0.13100
H1875       H  0.61029202  0.54106065  0.24014252     0.12100
H1876       H  0.61054426  0.45736043  0.25844307     0.09200
H1877       H  0.57389146  0.46064158  0.26123903     0.12500
H1878       H  0.57766076  0.52563545  0.24866852     0.14300
C1879       C  0.74865531  0.42993720  0.50337548    -0.01200
C1880       C  0.74530906  0.41869776  0.52158660    -0.09200
C1881       C  0.74459887  0.39716689  0.52136956    -0.18000
C1882       C  0.74742639  0.38591618  0.50282836     0.04400
C1883       C  0.75085739  0.39728456  0.48438290     0.18500
C1884       C  0.75124444  0.41896924  0.48477717    -0.19500
C1885       C  0.75403436  0.38694883  0.46562707    -0.20700
C1886       C  0.75396314  0.36554045  0.46477057    -0.19300
C1887       C  0.75053141  0.35386612  0.48261179     0.19900
C1888       C  0.74713528  0.36385117  0.50191115     0.02000
C1889       C  0.74360585  0.35127919  0.51940214    -0.14000
C1890       C  0.74357974  0.32979965  0.51779375    -0.11700
C1891       C  0.74704711  0.31999294  0.49877430     0.01600
C1892       C  0.75049893  0.33222219  0.48123153    -0.23900
H1893       H  0.74365995  0.42653718  0.53628357     0.09600
H1894       H  0.74208958  0.38978770  0.53605190     0.13200
H1895       H  0.75348957  0.42730133  0.47045545     0.11900
H1896       H  0.75671614  0.39549353  0.45150410     0.13100
H1897       H  0.75656913  0.35805455  0.45000619     0.12100
H1898       H  0.74069928  0.35755679  0.53454810     0.09200
H1899       H  0.74053779  0.32080580  0.53153957     0.12500
H1900       H  0.75345039  0.32487195  0.46646134     0.14300
C1901       C  0.82203526  0.48961099  0.73366468    -0.01200
C1902       C  0.83171191  0.50826388  0.73880028    -0.09200
C1903       C  0.85324049  0.50999139  0.73910167    -0.18000
C1904       C  0.86603174  0.49295419  0.73438956     0.04400
C1905       C  0.85620761  0.47400757  0.72924490     0.18500
C1906       C  0.83444777  0.47252464  0.72885925    -0.19500
C1907       C  0.86817066  0.45658998  0.72474207    -0.20700
C1908       C  0.88968701  0.45742923  0.72570375    -0.19300
C1909       C  0.89982913  0.47576850  0.73096934     0.19900
C1910       C  0.88817447  0.49390585  0.73504583     0.02000
C1911       C  0.89922328  0.51212253  0.73984056    -0.14000
C1912       C  0.92081262  0.51209863  0.74134762    -0.11700
C1913       C  0.93223237  0.49405355  0.73798118     0.01600
C1914       C  0.92158602  0.47599316  0.73246996    -0.23900
H1915       H  0.82256756  0.52162049  0.74297141     0.09600
H1916       H  0.85936289  0.52482045  0.74340415     0.13200
H1917       H  0.82715814  0.45805784  0.72469954     0.11900
H1918       H  0.86082555  0.44211489  0.72073568     0.13100
H1919       H  0.89846490  0.44357206  0.72243915     0.12100
H1920       H  0.89166111  0.52665729  0.74259299     0.09200
H1921       H  0.92865461  0.52636071  0.74513788     0.12500
H1922       H  0.93021458  0.46189841  0.72988317     0.14300
C1923       C  0.43055243  0.50750313  0.75376626    -0.01200
C1924       C  0.42059438  0.50676748  0.77296756    -0.09200
C1925       C  0.39896974  0.50694850  0.77425319    -0.18000
C1926       C  0.38644457  0.50764196  0.75622315     0.04400
C1927       C  0.39662031  0.50843375  0.73677218     0.18500
C1928       C  0.41838689  0.50855976  0.73573796    -0.19500
C1929       C  0.38502543  0.50871755  0.71841348    -0.20700
C1930       C  0.36351149  0.50785556  0.71888888    -0.19300
C1931       C  0.35298402  0.50698320  0.73774549     0.19900
C1932       C  0.36425499  0.50721810  0.75672450     0.02000
C1933       C  0.35278215  0.50691515  0.77532621    -0.14000
C1934       C  0.33114373  0.50606373  0.77505183    -0.11700
C1935       C  0.32015459  0.50529104  0.75632669     0.01600
C1936       C  0.33120966  0.50580265  0.73771543    -0.23900
H1937       H  0.42960842  0.50609321  0.78712845     0.09600
H1938       H  0.39253935  0.50622641  0.78958203     0.13200
H1939       H  0.42589424  0.50881948  0.72077127     0.11900
H1940       H  0.39267037  0.50933318  0.70353538     0.13100
H1941       H  0.35503725  0.50783148  0.70437215     0.12100
H1942       H  0.36006069  0.50733857  0.79035288     0.09200
H1943       H  0.32294242  0.50559129  0.78962508     0.12500
H1944       H  0.32279223  0.50544012  0.72315835     0.14300
C1945       C  0.74105195  0.82456767  0.49249493    -0.01200
C1946       C  0.75951453  0.83427605  0.48669180    -0.09200
C1947       C  0.76145523  0.85575902  0.48749047    -0.18000
C1948       C  0.74478836  0.86838870  0.49394067     0.04400
C1949       C  0.72595550  0.85847482  0.49939009     0.18500
C1950       C  0.72435218  0.83685369  0.49885079    -0.19500
C1951       C  0.70873489  0.87019438  0.50523145    -0.20700
C1952       C  0.70966498  0.89158762  0.50553968    -0.19300
C1953       C  0.72797511  0.90186132  0.50044824     0.19900
C1954       C  0.74596629  0.89044639  0.49495704     0.02000
C1955       C  0.76429280  0.90166313  0.49085064    -0.14000
C1956       C  0.76456436  0.92323025  0.49179494    -0.11700
C1957       C  0.74658723  0.93434458  0.49649250     0.01600
C1958       C  0.72836404  0.92353788  0.50083747    -0.23900
H1959       H  0.77269190  0.82516278  0.48183978     0.09600
H1960       H  0.77613173  0.86204382  0.48279242     0.13200
H1961       H  0.70990511  0.82954075  0.50311022     0.11900
H1962       H  0.69433023  0.86275608  0.50938038     0.13100
H1963       H  0.69595161  0.90017301  0.50989394     0.12100
H1964       H  0.77868948  0.89419645  0.48701301     0.09200
H1965       H  0.77881706  0.93131554  0.48843684     0.12500
H1966       H  0.71447372  0.93208628  0.50473206     0.14300
C1967       C  0.50991855  0.74215280  0.42878239    -0.01200
C1968       C  0.52817122  0.73741316  0.41814142    -0.09200
C1969       C  0.52843034  0.73652530  0.39647533    -0.18000
C1970       C  0.51024903  0.74017919  0.38466343     0.04400
C1971       C  0.49172506  0.74467708  0.39560511     0.18500
C1972       C  0.49175139  0.74569383  0.41734399    -0.19500
C1973       C  0.47322673  0.74819964  0.38480565    -0.20700
C1974       C  0.47265909  0.74743207  0.36331287    -0.19300
C1975       C  0.49059562  0.74322345  0.35199678     0.19900
C1976       C  0.50969128  0.73956469  0.36246523     0.02000
C1977       C  0.52733647  0.73556778  0.35020499    -0.14000
C1978       C  0.52606368  0.73537984  0.32857591    -0.11700
C1979       C  0.50722937  0.73911919  0.31828598     0.01600
C1980       C  0.48952420  0.74287048  0.33021724    -0.23900
H1981       H  0.54243881  0.73478692  0.42662156     0.09600
H1982       H  0.54309866  0.73297840  0.38943090     0.13200
H1983       H  0.47749165  0.74914834  0.42544558     0.11900
H1984       H  0.45905122  0.75159589  0.39305702     0.13100
H1985       H  0.45806040  0.75025361  0.35546745     0.12100
H1986       H  0.54237984  0.73262804  0.35685903     0.09200
H1987       H  0.53996710  0.73218306  0.31982863     0.12500
H1988       H  0.47492136  0.74607079  0.32252147     0.14300
C1989       C  0.49697239  0.75492415  0.82051274    -0.01200
C1990       C  0.47891419  0.74911582  0.83083809    -0.09200
C1991       C  0.47827092  0.74870032  0.85245557    -0.18000
C1992       C  0.49574096  0.75436652  0.86450466     0.04400
C1993       C  0.51387203  0.76072731  0.85387318     0.18500
C1994       C  0.51437351  0.76077290  0.83213684    -0.19500
C1995       C  0.53143942  0.76696076  0.86498023    -0.20700
C1996       C  0.53154693  0.76675933  0.88648533    -0.19300
C1997       C  0.51416105  0.76012639  0.89744536     0.19900
C1998       C  0.49596526  0.75385528  0.88665230     0.02000
C1999       C  0.47894668  0.74706043  0.89852889    -0.14000
C2000       C  0.48013499  0.74615142  0.92010185    -0.11700
C2001       C  0.49815198  0.75217745  0.93062295     0.01600
C2002       C  0.51501173  0.75941782  0.91917750    -0.23900
H2003       H  0.46530123  0.74456611  0.82210803     0.09600
H2004       H  0.46386573  0.74390592  0.85924811     0.13200
H2005       H  0.52829848  0.76559315  0.82418730     0.11900
H2006       H  0.54524798  0.77196299  0.85696730     0.13100
H2007       H  0.54544086  0.77159546  0.89460744     0.12100
H2008       H  0.46458354  0.74208518  0.89162091     0.09200
H2009       H  0.46682180  0.74074511  0.92864784     0.12500
H2010       H  0.52907030  0.76396446  0.92720516     0.14300
C2011       C  0.75475984  0.17680318  0.99480579    -0.01200
C2012       C  0.73590448  0.16658751  0.99157392    -0.09200
C2013       C  0.73458336  0.14512740  0.99311017    -0.18000
C2014       C  0.75224141  0.13304206  0.99783629     0.04400
C2015       C  0.77135619  0.14349787  0.00096728     0.18500
C2016       C  0.77241488  0.16508323  0.99950749    -0.19500
C2017       C  0.78936620  0.13236119  0.00552133    -0.20700
C2018       C  0.78886978  0.11102118  0.00705675    -0.19300
C2019       C  0.77034229  0.10022099  0.00411236     0.19900
C2020       C  0.75171449  0.11102146  0.99951354     0.02000
C2021       C  0.73346022  0.09925271  0.99677747    -0.14000
C2022       C  0.73377769  0.07774253  0.99835908    -0.11700
C2023       C  0.75221974  0.06713183  0.00273982     0.01600
C2024       C  0.77041388  0.07861643  0.00571020    -0.23900
H2025       H  0.72198448  0.17528712  0.98815325     0.09600
H2026       H  0.71951941  0.13846343  0.99052755     0.13200
H2027       H  0.78712950  0.17279993  0.00181670     0.11900
H2028       H  0.80398484  0.14022045  0.00789523     0.13100
H2029       H  0.80312545  0.10288914  0.01056058     0.12100
H2030       H  0.71869667  0.10620230  0.99328362     0.09200
H2031       H  0.71952246  0.06935500  0.99573881     0.12500
H2032       H  0.78473852  0.07071416  0.00947174     0.14300
C2033       C  0.17739579  0.99035135  0.74303926    -0.01200
C2034       C  0.16738878  0.00811138  0.73586387    -0.09200
C2035       C  0.14579059  0.00923910  0.73503537    -0.18000
C2036       C  0.13336578  0.99259957  0.74168951     0.04400
C2037       C  0.14363428  0.97459140  0.74898050     0.18500
C2038       C  0.16542116  0.97356189  0.74940681    -0.19500
C2039       C  0.13209758  0.95776599  0.75594801    -0.20700
C2040       C  0.11056062  0.95838874  0.75585337    -0.19300
C2041       C  0.09995744  0.97586145  0.74880505     0.19900
C2042       C  0.11118061  0.99321637  0.74156682     0.02000
C2043       C  0.09967628  0.01047910  0.73473683    -0.14000
C2044       C  0.07804933  0.01062449  0.73542507    -0.11700
C2045       C  0.06694654  0.99353304  0.74266312     0.01600
C2046       C  0.07815294  0.97610566  0.74913713    -0.23900
H2047       H  0.17637838  0.02117764  0.73066948     0.09600
H2048       H  0.13932319  0.02339093  0.72920917     0.13200
H2049       H  0.17311454  0.95981018  0.75506074     0.11900
H2050       H  0.13979501  0.94402432  0.76159101     0.13100
H2051       H  0.10212594  0.94511309  0.76144165     0.12100
H2052       H  0.10691501  0.02425653  0.72901795     0.09200
H2053       H  0.07004794  0.02449741  0.73066695     0.12500
H2054       H  0.06991240  0.96259033  0.75441945     0.14300
C2055       C  0.00015955  0.74985541  0.07811363    -0.01200
C2056       C  0.00581437  0.76812724  0.08819469    -0.09200
C2057       C  0.00606288  0.76932490  0.10977092    -0.18000
C2058       C  0.00052773  0.75217527  0.12202372     0.04400
C2059       C  0.99462277  0.73373857  0.11164843     0.18500
C2060       C  0.99459583  0.73273048  0.08997042    -0.19500
C2061       C  0.98868426  0.71639152  0.12293886    -0.20700
C2062       C  0.98853715  0.71687380  0.14440327    -0.19300
C2063       C  0.99446984  0.73466617  0.15510600     0.19900
C2064       C  0.00060363  0.75259690  0.14413767     0.02000
C2065       C  0.00665424  0.77005427  0.15582590    -0.14000
C2066       C  0.00664535  0.76963511  0.17743583    -0.11700
C2067       C  0.00056700  0.75190568  0.18811057     0.01600
C2068       C  0.99445386  0.73451349  0.17679136    -0.23900
H2069       H  0.01030149  0.78152643  0.07933143     0.09600
H2070       H  0.01060972  0.78389118  0.11635817     0.13200
H2071       H  0.98987980  0.71863573  0.08226181     0.11900
H2072       H  0.98410088  0.70233254  0.11510527     0.13100
H2073       H  0.98384639  0.70317420  0.15270282     0.12100
H2074       H  0.01156014  0.78423256  0.14876257     0.09200
H2075       H  0.01124425  0.78334417  0.18584131     0.12500
H2076       H  0.99004987  0.72060513  0.18491382     0.14300
C2077       C  0.24693375  0.66953959  0.50133267    -0.01200
C2078       C  0.22854187  0.65821204  0.49959666    -0.09200
C2079       C  0.22885503  0.63667045  0.49909439    -0.18000
C2080       C  0.24773287  0.62562135  0.50019910     0.04400
C2081       C  0.26638830  0.63720599  0.50146183     0.18500
C2082       C  0.26581934  0.65886613  0.50212851    -0.19500
C2083       C  0.28553979  0.62711476  0.50212142    -0.20700
C2084       C  0.28662392  0.60573677  0.50159444    -0.19300
C2085       C  0.26858022  0.59385294  0.50056645     0.19900
C2086       C  0.24883675  0.60356405  0.50001749     0.02000
C2087       C  0.23113398  0.59072830  0.49940036    -0.14000
C2088       C  0.23301658  0.56924940  0.49892960    -0.11700
C2089       C  0.25253420  0.55975664  0.49902070     0.01600
C2090       C  0.27023112  0.57225961  0.50004833    -0.23900
H2091       H  0.21373671  0.66605838  0.49910106     0.09600
H2092       H  0.21405444  0.62911913  0.49785945     0.13200
H2093       H  0.28016125  0.66747884  0.50317950     0.11900
H2094       H  0.29981863  0.63583129  0.50301447     0.13100
H2095       H  0.30172077  0.59843369  0.50204500     0.12100
H2096       H  0.21560407  0.59681070  0.49923478     0.09200
H2097       H  0.21907662  0.56002960  0.49807247     0.12500
H2098       H  0.28541933  0.56514358  0.50061230     0.14300
C2099       C  0.24841000  0.06271606  0.49504845    -0.01200
C2100       C  0.24196878  0.07429904  0.47794610    -0.09200
C2101       C  0.24351459  0.09578429  0.47812145    -0.18000
C2102       C  0.25130185  0.10637983  0.49567494     0.04400
C2103       C  0.25725016  0.09446535  0.51318015     0.18500
C2104       C  0.25604219  0.07290412  0.51259056    -0.19500
C2105       C  0.26420969  0.10411679  0.53127908    -0.20700
C2106       C  0.26529901  0.12543565  0.53248109    -0.19300
C2107       C  0.25993245  0.13762023  0.51544832     0.19900
C2108       C  0.25317755  0.12831722  0.49665412     0.02000
C2109       C  0.24879837  0.14140610  0.47968326    -0.14000
C2110       C  0.25070379  0.16279726  0.48148256    -0.11700
C2111       C  0.25676505  0.17183772  0.50024079     0.01600
C2112       C  0.26140836  0.15911713  0.51712042    -0.23900
H2113       H  0.23596007  0.06665729  0.46426914     0.09600
H2114       H  0.23825599  0.10367042  0.46441314     0.13200
H2115       H  0.26070790  0.06397396  0.52599858     0.11900
H2116       H  0.26865327  0.09511116  0.54469308     0.13100
H2117       H  0.27054532  0.13244586  0.54680583     0.12100
H2118       H  0.24406166  0.13557514  0.46477909     0.09200
H2119       H  0.24709509  0.17235650  0.46822528     0.12500
H2120       H  0.26650509  0.16601162  0.53156800     0.14300
C2121       C  0.99332975  0.73442006  0.57574020    -0.01200
C2122       C  0.01255762  0.73338553  0.58585023    -0.09200
C2123       C  0.01383585  0.73303381  0.60750908    -0.18000
C2124       C  0.99579515  0.73390083  0.61986663     0.04400
C2125       C  0.97636319  0.73526237  0.60947905     0.18500
C2126       C  0.97531996  0.73541016  0.58773699    -0.19500
C2127       C  0.95800933  0.73647230  0.62082986    -0.20700
C2128       C  0.95844999  0.73629874  0.64232391    -0.19300
C2129       C  0.97725120  0.73483639  0.65308008     0.19900
C2130       C  0.99623316  0.73354469  0.64208049     0.02000
C2131       C  0.01471565  0.73194138  0.65385876    -0.14000
C2132       C  0.01431560  0.73187589  0.67555447    -0.11700
C2133       C  0.99555382  0.73340795  0.68633202     0.01600
C2134       C  0.97708956  0.73471798  0.67484307    -0.23900
H2135       H  0.02669381  0.73248384  0.57694208     0.09600
H2136       H  0.02915370  0.73208005  0.61412606     0.13200
H2137       H  0.96038070  0.73650990  0.58007789     0.11900
H2138       H  0.94316194  0.73757833  0.61301491     0.13100
H2139       H  0.94393115  0.73730532  0.65061140     0.12100
H2140       H  0.02973526  0.73080551  0.64675292     0.09200
H2141       H  0.02885370  0.73103496  0.68392967     0.12500
H2142       H  0.96241652  0.73550632  0.68288466     0.14300
C2143       C  0.20726415  0.99761827  0.48583658    -0.01200
C2144       C  0.20143874  0.98031969  0.49737811    -0.09200
C2145       C  0.18502330  0.96787763  0.49100126    -0.18000
C2146       C  0.17392937  0.97228790  0.47264167     0.04400
C2147       C  0.17868172  0.99087110  0.46204647     0.18500
C2148       C  0.19512660  0.00338136  0.46878053    -0.19500
C2149       C  0.16782883  0.99622361  0.44406187    -0.20700
C2150       C  0.15353506  0.98272362  0.43540073    -0.19300
C2151       C  0.14985901  0.96353482  0.44448304     0.19900
C2152       C  0.15931962  0.95834641  0.46367531     0.02000
C2153       C  0.15485908  0.93880908  0.47223061    -0.14000
C2154       C  0.14339571  0.92427492  0.46109846    -0.11700
C2155       C  0.13570904  0.92886350  0.44132756     0.01600
C2156       C  0.13794469  0.94895582  0.43371516    -0.23900
H2157       H  0.21005169  0.97600472  0.51112892     0.09600
H2158       H  0.18189077  0.95456313  0.50039190     0.13200
H2159       H  0.19936209  0.01683842  0.45985235     0.11900
H2160       H  0.17108290  0.01054065  0.43612776     0.13100
H2161       H  0.14608060  0.98689767  0.42094017     0.12100
H2162       H  0.16085963  0.93389481  0.48700033     0.09200
H2163       H  0.14152922  0.90901821  0.46756722     0.12500
H2164       H  0.13173592  0.95285362  0.41860063     0.14300
C2165       C  0.01602466  0.76094674  0.50556979    -0.01200
C2166       C  0.02108790  0.75480002  0.48534114    -0.09200
C2167       C  0.03078090  0.76822950  0.47167844    -0.18000
C2168       C  0.03641100  0.78828390  0.47790911     0.04400
C2169       C  0.03324527  0.79385022  0.49893097     0.18500
C2170       C  0.02272681  0.78042694  0.51239367    -0.19500
C2171       C  0.04050830  0.81283017  0.50629194    -0.20700
C2172       C  0.05088115  0.82632524  0.49319843    -0.19300
C2173       C  0.05329789  0.82165059  0.47217632     0.19900
C2174       C  0.04546720  0.80282927  0.46411106     0.02000
C2175       C  0.04662089  0.79955891  0.44250777    -0.14000
C2176       C  0.05614713  0.81390106  0.42962581    -0.11700
C2177       C  0.06515154  0.83176124  0.43782130     0.01600
C2178       C  0.06349706  0.83564912  0.45912292    -0.23900
H2179       H  0.01740412  0.73948064  0.47983593     0.09600
H2180       H  0.03406153  0.76233662  0.45643069     0.13200
H2181       H  0.01932358  0.78546517  0.52799588     0.11900
H2182       H  0.03842294  0.81713899  0.52235572     0.13100
H2183       H  0.05667862  0.84070591  0.49946803     0.12100
H2184       H  0.04004757  0.78617638  0.43509229     0.09200
H2185       H  0.05716181  0.81058725  0.41322576     0.12500
H2186       H  0.07017581  0.84959252  0.46554219     0.14300
C2187       C  0.03496212  0.76832222  0.25591220    -0.01200
C2188       C  0.04504597  0.75738749  0.27165125    -0.09200
C2189       C  0.05918660  0.76717161  0.28475705    -0.18000
C2190       C  0.06334004  0.78845994  0.28276873     0.04400
C2191       C  0.05340204  0.79932966  0.26638505     0.18500
C2192       C  0.03968627  0.78912321  0.25294674    -0.19500
C2193       C  0.05642857  0.82052710  0.26408896    -0.20700
C2194       C  0.06830739  0.83142155  0.27833441    -0.19300
C2195       C  0.07779629  0.82129898  0.29495814     0.19900
C2196       C  0.07610881  0.79956159  0.29703317     0.02000
C2197       C  0.08661252  0.79007084  0.31379354    -0.14000
C2198       C  0.09700087  0.80186209  0.32866086    -0.11700
C2199       C  0.09735889  0.82328742  0.32713631     0.01600
C2200       C  0.08821929  0.83291513  0.31006129    -0.23900
H2201       H  0.04164009  0.74123974  0.27407156     0.09600
H2202       H  0.06600447  0.75781364  0.29673465     0.13200
H2203       H  0.03170641  0.79766969  0.24090017     0.11900
H2204       H  0.04895726  0.82886995  0.25160034     0.13100
H2205       H  0.06973928  0.84795384  0.27657165     0.12100
H2206       H  0.08663713  0.77365411  0.31614975     0.09200
H2207       H  0.10387472  0.79429716  0.34195715     0.12500
H2208       H  0.08840981  0.84959261  0.30907634     0.14300
C2209       C  0.16425537  0.81584186  0.42233836    -0.01200
C2210       C  0.17721328  0.80229110  0.41146993    -0.09200
C2211       C  0.18758102  0.78622474  0.42176704    -0.18000
C2212       C  0.18522679  0.78319531  0.44335610     0.04400
C2213       C  0.17198820  0.79697824  0.45414850     0.18500
C2214       C  0.16177556  0.81290755  0.44368092    -0.19500
C2215       C  0.16903030  0.79498330  0.47546761    -0.20700
C2216       C  0.17941959  0.77991245  0.48656645    -0.19300
C2217       C  0.19287602  0.76630943  0.47660264     0.19900
C2218       C  0.19570842  0.76735457  0.45479597     0.02000
C2219       C  0.20912798  0.75269886  0.44562774    -0.14000
C2220       C  0.21999505  0.73837988  0.45779142    -0.11700
C2221       C  0.21787588  0.73831138  0.47935770     0.01600
C2222       C  0.20391900  0.75198828  0.48853652    -0.23900
H2223       H  0.17934366  0.80408143  0.39496134     0.09600
H2224       H  0.19740497  0.77650029  0.41248863     0.13200
H2225       H  0.15169358  0.82307763  0.45236211     0.11900
H2226       H  0.15883222  0.80539292  0.48370879     0.13100
H2227       H  0.17708822  0.77904868  0.50314165     0.12100
H2228       H  0.21178177  0.75217988  0.42918020     0.09200
H2229       H  0.23072786  0.72788248  0.45041190     0.12500
H2230       H  0.20206618  0.75179650  0.50521296     0.14300
C2231       C  0.31666100  0.90131946  0.66051121    -0.01200
C2232       C  0.30619273  0.89125329  0.67653357    -0.09200
C2233       C  0.29091196  0.90156385  0.68803488    -0.18000
C2234       C  0.28561585  0.92234030  0.68376556     0.04400
C2235       C  0.29574837  0.93205253  0.66692346     0.18500
C2236       C  0.31092431  0.92157846  0.65561401    -0.19500
C2237       C  0.29108563  0.95240984  0.66162772    -0.20700
C2238       C  0.27704367  0.96372189  0.67314265    -0.19300
C2239       C  0.26730879  0.95497831  0.69025858     0.19900
C2240       C  0.27108200  0.93406932  0.69572499     0.02000
C2241       C  0.26054290  0.92617706  0.71320305    -0.14000
C2242       C  0.24746650  0.93879584  0.72507058    -0.11700
C2243       C  0.24457373  0.95951502  0.71984699     0.01600
C2244       C  0.25423042  0.96734285  0.70226228    -0.23900
H2245       H  0.31016983  0.87554594  0.68053128     0.09600
H2246       H  0.28372411  0.89302287  0.70034642     0.13200
H2247       H  0.31856813  0.92948086  0.64301187     0.11900
H2248       H  0.29865859  0.95978989  0.64867934     0.13100
H2249       H  0.27407633  0.97958889  0.66885297     0.12100
H2250       H  0.26244004  0.91047865  0.71827351     0.09200
H2251       H  0.24010086  0.93254703  0.73870307     0.12500
H2252       H  0.25191324  0.98340098  0.69822992     0.14300
C2253       C  0.34697623  0.92475666  0.56199705    -0.01200
C2254       C  0.33959854  0.91903112  0.54239534    -0.09200
C2255       C  0.32834390  0.93292525  0.53025115    -0.18000
C2256       C  0.32380693  0.95299024  0.53755071     0.04400
C2257       C  0.33224683  0.95899564  0.55699734     0.18500
C2258       C  0.34386020  0.94503034  0.56881434    -0.19500
C2259       C  0.32830908  0.97862285  0.56502872    -0.20700
C2260       C  0.31532768  0.99217302  0.55461913    -0.19300
C2261       C  0.30602085  0.98643956  0.53590584     0.19900
C2262       C  0.31048466  0.96697853  0.52679242     0.02000
C2263       C  0.30067202  0.96208240  0.50779831    -0.14000
C2264       C  0.28606619  0.97536666  0.49902027    -0.11700
C2265       C  0.28097063  0.99402254  0.50868212     0.01600
C2266       C  0.29154077  0.99974691  0.52674428    -0.23900
H2267       H  0.34203658  0.90355260  0.53661898     0.09600
H2268       H  0.32289006  0.92728031  0.51551865     0.13200
H2269       H  0.34958998  0.94973121  0.58389717     0.11900
H2270       H  0.33482970  0.98331458  0.57978512     0.13100
H2271       H  0.31209723  0.00704155  0.56154806     0.12100
H2272       H  0.30350959  0.94788432  0.49963277     0.09200
H2273       H  0.27835587  0.97081854  0.48481010     0.12500
H2274       H  0.28759778  0.01409881  0.53438709     0.14300
C2275       C  0.42674195  0.84351707  0.55734448    -0.01200
C2276       C  0.41806406  0.83587238  0.53893971    -0.09200
C2277       C  0.43010664  0.82526641  0.52458755    -0.18000
C2278       C  0.45142769  0.82183176  0.52816341     0.04400
C2279       C  0.46051668  0.83087219  0.54610315     0.18500
C2280       C  0.44816653  0.84156182  0.56048251    -0.19500
C2281       C  0.48172360  0.82846590  0.54999220    -0.20700
C2282       C  0.49382826  0.81612425  0.53722112    -0.19300
C2283       C  0.48500669  0.80582823  0.52029322     0.19900
C2284       C  0.46382575  0.80903347  0.51511053     0.02000
C2285       C  0.45575894  0.79846682  0.49767698    -0.14000
C2286       C  0.46784403  0.78439272  0.48670192    -0.11700
C2287       C  0.48833925  0.78041776  0.49259593     0.01600
C2288       C  0.49701707  0.79166063  0.50903338    -0.23900
H2289       H  0.40162645  0.83739336  0.53588415     0.09600
H2290       H  0.42210869  0.81951473  0.51111394     0.13200
H2291       H  0.45514383  0.84775690  0.57445487     0.11900
H2292       H  0.48886881  0.83563477  0.56339019     0.13100
H2293       H  0.51005413  0.81403971  0.54104484     0.12100
H2294       H  0.43998125  0.80019577  0.49250000     0.09200
H2295       H  0.46080948  0.77587939  0.47407056     0.12500
H2296       H  0.51298963  0.78886918  0.51347255     0.14300
C2297       C  0.40935966  0.82762589  0.67316062    -0.01200
C2298       C  0.39907740  0.81513543  0.68749088    -0.09200
C2299       C  0.40996111  0.80596808  0.70394998    -0.18000
C2300       C  0.43151993  0.80921032  0.70662616     0.04400
C2301       C  0.44164195  0.82218828  0.69216786     0.18500
C2302       C  0.43062284  0.83109116  0.67579837    -0.19500
C2303       C  0.46284182  0.82617408  0.69391023    -0.20700
C2304       C  0.47451180  0.81700885  0.70937512    -0.19300
C2305       C  0.46525565  0.80368507  0.72351592     0.19900
C2306       C  0.44357883  0.79983335  0.72273886     0.02000
C2307       C  0.43519780  0.78643783  0.73783563    -0.14000
C2308       C  0.44806176  0.77640829  0.75221838    -0.11700
C2309       C  0.46951170  0.77949116  0.75193515     0.01600
C2310       C  0.47782734  0.79366647  0.73801868    -0.23900
H2311       H  0.38261501  0.81234486  0.68592044     0.09600
H2312       H  0.40115527  0.79637292  0.71426188     0.13200
H2313       H  0.43877291  0.84099474  0.66508231     0.11900
H2314       H  0.47054668  0.83620996  0.68300161     0.13100
H2315       H  0.49099815  0.82008159  0.71004582     0.12100
H2316       H  0.41888115  0.78305418  0.73856028     0.09200
H2317       H  0.44135587  0.76556521  0.76298544     0.12500
H2318       H  0.49441307  0.79634235  0.73802996     0.14300
C2319       C  0.32955435  0.80959224  0.59014371    -0.01200
C2320       C  0.33948652  0.79584203  0.57678203    -0.09200
C2321       C  0.32867579  0.77961748  0.56757049    -0.18000
C2322       C  0.30721909  0.77702123  0.57091929     0.04400
C2323       C  0.29719158  0.79102896  0.58460254     0.18500
C2324       C  0.30852079  0.80682583  0.59447491    -0.19500
C2325       C  0.27577035  0.78975800  0.58757878    -0.20700
C2326       C  0.26393389  0.77560490  0.57646406    -0.19300
C2327       C  0.27329539  0.76193237  0.56256441     0.19900
C2328       C  0.29517397  0.76179951  0.56028814     0.02000
C2329       C  0.30393748  0.74682377  0.54697322    -0.14000
C2330       C  0.29139896  0.73372680  0.53516275    -0.11700
C2331       C  0.26982200  0.73515331  0.53617923     0.01600
C2332       C  0.26086514  0.74885342  0.55037403    -0.23900
H2333       H  0.35573958  0.79785470  0.57321797     0.09600
H2334       H  0.33736893  0.76992977  0.55721083     0.13200
H2335       H  0.30074484  0.81768263  0.60457696     0.11900
H2336       H  0.26799958  0.80031182  0.59798637     0.13100
H2337       H  0.24728786  0.77557113  0.57851750     0.12100
H2338       H  0.32041438  0.74505328  0.54512124     0.09200
H2339       H  0.29859845  0.72309740  0.52443426     0.12500
H2340       H  0.24413251  0.74973471  0.55145155     0.14300
C2341       C  0.00226038  0.24671624  0.43499009    -0.01200
C2342       C  0.99981297  0.26570731  0.42498965    -0.09200
C2343       C  0.99968728  0.26702997  0.40340012    -0.18000
C2344       C  0.00207516  0.24927354  0.39089933     0.04400
C2345       C  0.00445418  0.23000530  0.40107103     0.18500
C2346       C  0.00451452  0.22890264  0.42284111    -0.19500
C2347       C  0.00678342  0.21193154  0.38945459    -0.20700
C2348       C  0.00675497  0.21253246  0.36792729    -0.19300
C2349       C  0.00448053  0.23123442  0.35740859     0.19900
C2350       C  0.00214525  0.24990268  0.36872824     0.02000
C2351       C  0.00002100  0.26836265  0.35732730    -0.14000
C2352       C  0.00002452  0.26824854  0.33570904    -0.11700
C2353       C  0.00214860  0.24982389  0.32456273     0.01600
C2354       C  0.00447948  0.23135422  0.33559989    -0.23900
H2355       H  0.99770101  0.27967136  0.43392646     0.09600
H2356       H  0.99761198  0.28219681  0.39699096     0.13200
H2357       H  0.00661896  0.21413279  0.43036358     0.11900
H2358       H  0.00860728  0.19718590  0.39708236     0.13100
H2359       H  0.00854915  0.19823814  0.35943504     0.12100
H2360       H  0.99838426  0.28319306  0.36463523     0.09200
H2361       H  0.99857386  0.28278914  0.32764539     0.12500
H2362       H  0.00595868  0.21696594  0.32719912     0.14300
C2363       C  0.09463329  0.16834005  0.18666449    -0.01200
C2364       C  0.10326147  0.17550893  0.20528571    -0.09200
C2365       C  0.09126328  0.18683234  0.21941212    -0.18000
C2366       C  0.07014094  0.19133773  0.21531502     0.04400
C2367       C  0.06161667  0.18408679  0.19634263     0.18500
C2368       C  0.07378616  0.17289241  0.18238876    -0.19500
C2369       C  0.04087257  0.18788256  0.19132330    -0.20700
C2370       C  0.02823521  0.19868825  0.20479706    -0.19300
C2371       C  0.03603857  0.20611220  0.22358755     0.19900
C2372       C  0.05708523  0.20267619  0.22920196     0.02000
C2373       C  0.06398774  0.21081115  0.24838609    -0.14000
C2374       C  0.05060688  0.22210643  0.26119257    -0.11700
C2375       C  0.02992686  0.22557968  0.25538841     0.01600
C2376       C  0.02279270  0.21714543  0.23667941    -0.23900
H2377       H  0.11927186  0.17218135  0.20906785     0.09600
H2378       H  0.09887310  0.19173856  0.23345607     0.13200
H2379       H  0.06679023  0.16755899  0.16806762     0.11900
H2380       H  0.03432605  0.18237907  0.17686252     0.13100
H2381       H  0.01222487  0.20133794  0.20042773     0.12100
H2382       H  0.07970185  0.20891966  0.25375766     0.09200
H2383       H  0.05663179  0.22855511  0.27545795     0.12500
H2384       H  0.00673253  0.21922747  0.23217285     0.14300
C2385       C  0.01103411  0.24599145  0.93249119    -0.01200
C2386       C  0.02884890  0.24048315  0.92148078    -0.09200
C2387       C  0.02865131  0.23953426  0.89988194    -0.18000
C2388       C  0.01050586  0.24416176  0.88842687     0.04400
C2389       C  0.99236750  0.24941722  0.89965291     0.18500
C2390       C  0.99277754  0.25023693  0.92139286    -0.19500
C2391       C  0.97392850  0.25395871  0.88912417    -0.20700
C2392       C  0.97310914  0.25354369  0.86762365    -0.19300
C2393       C  0.99072478  0.24864736  0.85607866     0.19900
C2394       C  0.00970502  0.24389229  0.86628947     0.02000
C2395       C  0.02707617  0.23928000  0.85386268    -0.14000
C2396       C  0.02567218  0.23953792  0.83230391    -0.11700
C2397       C  0.00697390  0.24430232  0.82229877     0.01600
C2398       C  0.98950538  0.24869487  0.83433490    -0.23900
H2399       H  0.04321528  0.23729928  0.92958129     0.09600
H2400       H  0.04301556  0.23527122  0.89263698     0.13200
H2401       H  0.97876395  0.25412512  0.92970983     0.11900
H2402       H  0.96003476  0.25794545  0.89758575     0.13100
H2403       H  0.95860225  0.25720536  0.85996208     0.12100
H2404       H  0.04202064  0.23552252  0.86029123     0.09200
H2405       H  0.03933931  0.23584413  0.82337575     0.12500
H2406       H  0.97502619  0.25264052  0.82675091     0.14300
C2407       C  0.09057429  0.15567242  0.07242442    -0.01200
C2408       C  0.09978572  0.16064089  0.05347623    -0.09200
C2409       C  0.08936008  0.17286989  0.03894863    -0.18000
C2410       C  0.06927715  0.18063053  0.04296322     0.04400
C2411       C  0.05992963  0.17525654  0.06208414     0.18500
C2412       C  0.07052696  0.16292938  0.07644872    -0.19500
C2413       C  0.04008912  0.18237360  0.06694147    -0.20700
C2414       C  0.02921118  0.19473874  0.05319024    -0.19300
C2415       C  0.03795915  0.20043557  0.03430022     0.19900
C2416       C  0.05813189  0.19357822  0.02885508     0.02000
C2417       C  0.06622251  0.20016147  0.00964098    -0.14000
C2418       C  0.05482534  0.21317634  0.99659454    -0.11700
C2419       C  0.03502107  0.21998664  0.00218625     0.01600
C2420       C  0.02662818  0.21320966  0.02094422    -0.23900
H2421       H  0.11527203  0.15531317  0.04994622     0.09600
H2422       H  0.09747890  0.17609145  0.02479610     0.13200
H2423       H  0.06318224  0.15929650  0.09104377     0.11900
H2424       H  0.03291963  0.17835974  0.08151637     0.13100
H2425       H  0.01387460  0.20001371  0.05743960     0.12100
H2426       H  0.08141736  0.19577280  0.00440243     0.09200
H2427       H  0.06177240  0.21835436  0.98230413     0.12500
H2428       H  0.01116067  0.21802368  0.02528390     0.14300
C2429       C  0.31910933  0.99337570  0.26615171    -0.01200
C2430       C  0.32930739  0.01239420  0.26493003    -0.09200
C2431       C  0.35083194  0.01349410  0.26309015    -0.18000
C2432       C  0.36313556  0.99546870  0.26235198     0.04400
C2433       C  0.35283588  0.97617611  0.26378576     0.18500
C2434       C  0.33109492  0.97529819  0.26577385    -0.19500
C2435       C  0.36429127  0.95785808  0.26303048    -0.20700
C2436       C  0.38572629  0.95824379  0.26069889    -0.19300
C2437       C  0.39635464  0.97696226  0.25917751     0.19900
C2438       C  0.38522692  0.99587295  0.26014924     0.02000
C2439       C  0.39673081  0.01434872  0.25889191    -0.14000
C2440       C  0.41825787  0.01404396  0.25686777    -0.11700
C2441       C  0.42920454  0.99541895  0.25585171     0.01600
C2442       C  0.41808694  0.97688956  0.25685929    -0.23900
H2443       H  0.32058005  0.02663384  0.26556190     0.09600
H2444       H  0.35733241  0.02872428  0.26218549     0.13200
H2445       H  0.32345139  0.96047047  0.26654534     0.11900
H2446       H  0.35659466  0.94308365  0.26413736     0.13100
H2447       H  0.39406272  0.94376139  0.26009225     0.12100
H2448       H  0.38959694  0.02932947  0.25956026     0.09200
H2449       H  0.42644560  0.02856719  0.25602816     0.12500
H2450       H  0.42642637  0.96239675  0.25636446     0.14300
C2451       C  0.17532778  0.90698966  0.34787832    -0.01200
C2452       C  0.17567221  0.92848993  0.35002171    -0.09200
C2453       C  0.19142076  0.94025995  0.34145038    -0.18000
C2454       C  0.20758714  0.93101515  0.33011146     0.04400
C2455       C  0.20712376  0.90927303  0.32744008     0.18500
C2456       C  0.19124535  0.89742313  0.33658170    -0.19500
C2457       C  0.22228998  0.89964574  0.31533058    -0.20700
C2458       C  0.23739922  0.91122685  0.30525622    -0.19300
C2459       C  0.23813821  0.93269214  0.30751980     0.19900
C2460       C  0.22369203  0.94274445  0.32067032     0.02000
C2461       C  0.22573389  0.96422870  0.32352315    -0.14000
C2462       C  0.24006707  0.97551390  0.31223005    -0.11700
C2463       C  0.25306531  0.96589356  0.29790000     0.01600
C2464       C  0.25268445  0.94433305  0.29619719    -0.23900
H2465       H  0.16367056  0.93644614  0.35854968     0.09600
H2466       H  0.19017674  0.95666146  0.34362268     0.13200
H2467       H  0.19111210  0.88084341  0.33461627     0.11900
H2468       H  0.22213406  0.88309341  0.31317622     0.13100
H2469       H  0.24846970  0.90335288  0.29547655     0.12100
H2470       H  0.21625543  0.97287128  0.33411599     0.09200
H2471       H  0.24042356  0.99210516  0.31405451     0.12500
H2472       H  0.26283057  0.93678298  0.28522060     0.14300
C2473       C  0.17968662  0.08549068  0.18787167    -0.01200
C2474       C  0.19749237  0.09442416  0.19652124    -0.09200
C2475       C  0.21143558  0.08255753  0.20827160    -0.18000
C2476       C  0.20790780  0.06129679  0.21177467     0.04400
C2477       C  0.18936540  0.05264614  0.20362402     0.18500
C2478       C  0.17561589  0.06467912  0.19192862    -0.19500
C2479       C  0.18472624  0.03186693  0.20680513    -0.20700
C2480       C  0.19827097  0.01926985  0.21767014    -0.19300
C2481       C  0.21684822  0.02709764  0.22558979     0.19900
C2482       C  0.22202634  0.04820313  0.22285453     0.02000
C2483       C  0.24116625  0.05506614  0.23114539    -0.14000
C2484       C  0.25436969  0.04157452  0.24188903    -0.11700
C2485       C  0.24896196  0.02085874  0.24474978     0.01600
C2486       C  0.23024280  0.01379009  0.23627871    -0.23900
H2487       H  0.20099650  0.11047203  0.19367110     0.09600
H2488       H  0.22495178  0.09035325  0.21419142     0.13200
H2489       H  0.16175228  0.05760933  0.18559837     0.11900
H2490       H  0.17055669  0.02524464  0.20069445     0.13100
H2491       H  0.19422791  0.00321677  0.21978521     0.12100
H2492       H  0.24629379  0.07077841  0.22963834     0.09200
H2493       H  0.26865735  0.04750487  0.24838833     0.12500
H2494       H  0.22604334  0.99772101  0.23798341     0.14300
C2495       C  0.25472073  0.92543216  0.00204220    -0.01200
C2496       C  0.23532337  0.91586455  0.00049106    -0.09200
C2497       C  0.23353368  0.89434651  0.00032526    -0.18000
C2498       C  0.25120102  0.88149131  0.00198191     0.04400
C2499       C  0.27082233  0.89126240  0.00402171     0.18500
C2500       C  0.27241808  0.91294393  0.00380849    -0.19500
C2501       C  0.28876552  0.87932751  0.00628828    -0.20700
C2502       C  0.28771747  0.85790416  0.00644168    -0.19300
C2503       C  0.26872014  0.84774747  0.00409754     0.19900
C2504       C  0.25017013  0.85936218  0.00175185     0.02000
C2505       C  0.23147667  0.84826493  0.99915531    -0.14000
C2506       C  0.23122123  0.82666632  0.99900822    -0.11700
C2507       C  0.24950499  0.81517622  0.00145656     0.01600
C2508       C  0.26822801  0.82600320  0.00399361    -0.23900
H2509       H  0.22142491  0.92511554  0.99902123     0.09600
H2510       H  0.21808645  0.88823171  0.99894521     0.13200
H2511       H  0.28748911  0.92015593  0.00527548     0.11900
H2512       H  0.30376272  0.88662530  0.00798755     0.13100
H2513       H  0.30193534  0.84919673  0.00827459     0.12100
H2514       H  0.21675391  0.85584761  0.99716029     0.09200
H2515       H  0.21647117  0.81892809  0.99730803     0.12500
H2516       H  0.28259359  0.81749336  0.00557581     0.14300
C2517       C  0.16895382  0.06693705  0.08393205    -0.01200
C2518       C  0.16187211  0.04669860  0.08140673    -0.09200
C2519       C  0.17331567  0.03231970  0.06996261    -0.18000
C2520       C  0.19263869  0.03761744  0.06119459     0.04400
C2521       C  0.20001126  0.05801721  0.06445819     0.18500
C2522       C  0.18795904  0.07250296  0.07522698    -0.19500
C2523       C  0.21959162  0.06375851  0.05735238    -0.20700
C2524       C  0.23216390  0.04961802  0.04725267    -0.19300
C2525       C  0.22516355  0.02959847  0.04324955     0.19900
C2526       C  0.20513743  0.02339491  0.04969670     0.02000
C2527       C  0.19850130  0.00336183  0.04409877    -0.14000
C2528       C  0.21121246  0.99015043  0.03253032    -0.11700
C2529       C  0.23119329  0.99616495  0.02652290     0.01600
C2530       C  0.23808458  0.01587610  0.03252763    -0.23900
H2531       H  0.14734332  0.04200031  0.08823401     0.09600
H2532       H  0.16693972  0.01703202  0.06870018     0.13200
H2533       H  0.19378629  0.08799890  0.07755805     0.11900
H2534       H  0.22538106  0.07921604  0.05993432     0.13100
H2535       H  0.24736767  0.05450011  0.04221274     0.12100
H2536       H  0.18329435  0.99772224  0.04789082     0.09200
H2537       H  0.20507723  0.97533350  0.02791617     0.12500
H2538       H  0.25363118  0.02080420  0.02879450     0.14300
C2539       C  0.25221022  0.30979823  0.00712030    -0.01200
C2540       C  0.23368990  0.31984376  0.01210957    -0.09200
C2541       C  0.23233890  0.34131136  0.01189167    -0.18000
C2542       C  0.24968322  0.35359800  0.00687343     0.04400
C2543       C  0.26831684  0.34332792  0.00129917     0.18500
C2544       C  0.26937215  0.32166525  0.00134163    -0.19500
C2545       C  0.28590516  0.35474510  0.99608178    -0.20700
C2546       C  0.28552753  0.37617165  0.99659821    -0.19300
C2547       C  0.26755656  0.38677217  0.00236290     0.19900
C2548       C  0.24931289  0.37564905  0.00744729     0.02000
C2549       C  0.23159378  0.38710846  0.01315286    -0.14000
C2550       C  0.23198968  0.40859935  0.01378656    -0.11700
C2551       C  0.24996348  0.41955625  0.00876043     0.01600
C2552       C  0.26773939  0.40846562  0.00310298    -0.23900
H2553       H  0.22011938  0.31100170  0.01625556     0.09600
H2554       H  0.21754082  0.34779162  0.01594302     0.13200
H2555       H  0.28380145  0.31402961  0.99751847     0.11900
H2556       H  0.30014038  0.34703880  0.99174925     0.13100
H2557       H  0.29946752  0.38451744  0.99261063     0.12100
H2558       H  0.21717325  0.37995181  0.01732073     0.09200
H2559       H  0.21810632  0.41671636  0.01844674     0.12500
H2560       H  0.28166681  0.41674861  0.99892631     0.14300
C2561       C  0.18567386  0.17806489  0.11561424    -0.01200
C2562       C  0.17760308  0.19783957  0.11263111    -0.09200
C2563       C  0.18849898  0.21245790  0.10109047    -0.18000
C2564       C  0.20781153  0.20754072  0.09200350     0.04400
C2565       C  0.21657022  0.18793551  0.09655807     0.18500
C2566       C  0.20541364  0.17342141  0.10812357    -0.19500
C2567       C  0.23591621  0.18247458  0.08858568    -0.20700
C2568       C  0.24633693  0.19561638  0.07527747    -0.19300
C2569       C  0.23748557  0.21437471  0.06927131     0.19900
C2570       C  0.21827786  0.22082886  0.07779545     0.02000
C2571       C  0.20992099  0.23975663  0.07084081    -0.14000
C2572       C  0.21960966  0.25111428  0.05525671    -0.11700
C2573       C  0.23817354  0.24430256  0.04630400     0.01600
C2574       C  0.24735631  0.22625561  0.05406997    -0.23900
H2575       H  0.16221419  0.20156856  0.11810847     0.09600
H2576       H  0.18108171  0.22717765  0.09892618     0.13200
H2577       H  0.21155056  0.15800576  0.11025093     0.11900
H2578       H  0.24279434  0.16767554  0.09222503     0.13100
H2579       H  0.26105827  0.19068112  0.06897602     0.12100
H2580       H  0.19547747  0.24578982  0.07654197     0.09200
H2581       H  0.21199791  0.26488972  0.04964552     0.12500
H2582       H  0.26200890  0.22104138  0.04783948     0.14300
C2583       C  0.93262537  0.99956628  0.24750662    -0.01200
C2584       C  0.92256425  0.01827282  0.24349966    -0.09200
C2585       C  0.90095408  0.01934149  0.24243699    -0.18000
C2586       C  0.88863174  0.00154914  0.24515303     0.04400
C2587       C  0.89899315  0.98254034  0.24883784     0.18500
C2588       C  0.92070422  0.98176903  0.25017358    -0.19500
C2589       C  0.88765076  0.96434680  0.25105045    -0.20700
C2590       C  0.86618192  0.96455285  0.24964812    -0.19300
C2591       C  0.85547547  0.98300067  0.24627673     0.19900
C2592       C  0.86647078  0.00183499  0.24418313     0.02000
C2593       C  0.85475098  0.02006898  0.24131761    -0.14000
C2594       C  0.83310668  0.01950952  0.24025124    -0.11700
C2595       C  0.82241834  0.00082839  0.24185419     0.01600
C2596       C  0.83376576  0.98266599  0.24501027    -0.23900
H2597       H  0.93147726  0.03223272  0.24143079     0.09600
H2598       H  0.89437682  0.03427692  0.23931811     0.13200
H2599       H  0.92840646  0.96717478  0.25295188     0.11900
H2600       H  0.89545432  0.94980669  0.25377083     0.13100
H2601       H  0.85787566  0.95016006  0.25129598     0.12100
H2602       H  0.86183858  0.03500512  0.23990274     0.09200
H2603       H  0.82469036  0.03374258  0.23779002     0.12500
H2604       H  0.82562472  0.96817832  0.24671305     0.14300
C2605       C  0.99747597  0.97565542  0.28348429    -0.01200
C2606       C  0.99100342  0.95582187  0.28886090    -0.09200
C2607       C  0.00191674  0.94431088  0.30356227    -0.18000
C2608       C  0.01978831  0.95234326  0.31344240     0.04400
C2609       C  0.02579932  0.97280378  0.30849206     0.18500
C2610       C  0.01466587  0.98418897  0.29368165    -0.19500
C2611       C  0.04317508  0.98163540  0.31799291    -0.20700
C2612       C  0.05519644  0.97033934  0.33181016    -0.19300
C2613       C  0.05016620  0.94991240  0.33645926     0.19900
C2614       C  0.03219436  0.94070241  0.32763672     0.02000
C2615       C  0.02777564  0.92007106  0.33300456    -0.14000
C2616       C  0.04104963  0.90886454  0.34588344    -0.11700
C2617       C  0.05917438  0.91773823  0.35389697     0.01600
C2618       C  0.06337018  0.93845489  0.34944194    -0.23900
H2619       H  0.97780626  0.94889168  0.28114676     0.09600
H2620       H  0.99615850  0.92905538  0.30656762     0.13200
H2621       H  0.01957005  0.99967680  0.28983443     0.11900
H2622       H  0.04772631  0.99728643  0.31442520     0.13100
H2623       H  0.06876993  0.97751439  0.33860288     0.12100
H2624       H  0.01441243  0.91198136  0.32717714     0.09200
H2625       H  0.03739053  0.89290213  0.34901787     0.12500
H2626       H  0.07727255  0.94556009  0.35562871     0.14300
C2627       C  0.00251428  0.01631286  0.21811982    -0.01200
C2628       C  0.01990499  0.00588206  0.21049851    -0.09200
C2629       C  0.03318261  0.01525351  0.19638513    -0.18000
C2630       C  0.02957887  0.03560124  0.18948255     0.04400
C2631       C  0.01149613  0.04584827  0.19669561     0.18500
C2632       C  0.99814874  0.03613057  0.21073628    -0.19500
C2633       C  0.00716548  0.06599629  0.19037591    -0.20700
C2634       C  0.02080349  0.07652512  0.17765170    -0.19300
C2635       C  0.03911197  0.06716605  0.17091368     0.19900
C2636       C  0.04359617  0.04642324  0.17633067     0.02000
C2637       C  0.06230286  0.03775026  0.16898473    -0.14000
C2638       C  0.07656067  0.04962817  0.15802908    -0.11700
C2639       C  0.07253405  0.07038369  0.15368892     0.01600
C2640       C  0.05338915  0.07878187  0.15952233    -0.23900
H2641       H  0.02336322  0.99037179  0.21561012     0.09600
H2642       H  0.04631737  0.00628120  0.19147675     0.13200
H2643       H  0.98478041  0.04436424  0.21659663     0.11900
H2644       H  0.99335693  0.07384936  0.19570210     0.13100
H2645       H  0.01724498  0.09229858  0.17346760     0.12100
H2646       H  0.06668288  0.02202093  0.17198113     0.09200
H2647       H  0.09110430  0.04266701  0.15349715     0.12500
H2648       H  0.05001734  0.09481002  0.15622655     0.14300
C2649       C  0.56985833  0.99666775  0.74196638    -0.01200
C2650       C  0.58019261  0.97805241  0.73803668    -0.09200
C2651       C  0.60186204  0.97697100  0.73825131    -0.18000
C2652       C  0.61408329  0.99458446  0.74247129     0.04400
C2653       C  0.60356571  0.01355529  0.74579416     0.18500
C2654       C  0.58177501  0.01440727  0.74555716    -0.19500
C2655       C  0.61484404  0.03157972  0.74957133    -0.20700
C2656       C  0.63636566  0.03116840  0.75045960    -0.19300
C2657       C  0.64721779  0.01267935  0.74782870     0.19900
C2658       C  0.63627938  0.99408224  0.74377997     0.02000
C2659       C  0.64805689  0.97578587  0.74170878    -0.14000
C2660       C  0.66964479  0.97593384  0.74397390    -0.11700
C2661       C  0.68033179  0.99428779  0.74802400     0.01600
C2662       C  0.66896683  0.01265193  0.74964613    -0.23900
H2663       H  0.57149077  0.96406302  0.73529247     0.09600
H2664       H  0.60858722  0.96208215  0.73521499     0.13200
H2665       H  0.57404096  0.02900373  0.74817961     0.11900
H2666       H  0.60694644  0.04611598  0.75200312     0.13100
H2667       H  0.64458041  0.04539862  0.75354688     0.12100
H2668       H  0.64101160  0.96104797  0.73868187     0.09200
H2669       H  0.67806949  0.96157662  0.74248231     0.12500
H2670       H  0.67705507  0.02690822  0.75299157     0.14300
C2671       C  0.42935008  0.92098092  0.64873325    -0.01200
C2672       C  0.42192068  0.93006649  0.66688941    -0.09200
C2673       C  0.43518543  0.94054331  0.68027355    -0.18000
C2674       C  0.45644575  0.94265056  0.67572616     0.04400
C2675       C  0.46371489  0.93476446  0.65657081     0.18500
C2676       C  0.45030239  0.92342287  0.64354643    -0.19500
C2677       C  0.48424325  0.93838975  0.65062960    -0.20700
C2678       C  0.49754685  0.94988423  0.66324156    -0.19300
C2679       C  0.49103376  0.95699760  0.68265379     0.19900
C2680       C  0.47060406  0.95268167  0.68940719     0.02000
C2681       C  0.46534245  0.95791659  0.70986719    -0.14000
C2682       C  0.47933602  0.96805286  0.72271313    -0.11700
C2683       C  0.49890130  0.97427766  0.71556864     0.01600
C2684       C  0.50477760  0.96823224  0.69547449    -0.23900
H2685       H  0.40578628  0.92850415  0.67113579     0.09600
H2686       H  0.42826005  0.94720635  0.69388159     0.13200
H2687       H  0.45606241  0.91672812  0.62930980     0.11900
H2688       H  0.48992268  0.93265621  0.63595606     0.13100
H2689       H  0.51317038  0.95282457  0.65798031     0.12100
H2690       H  0.45074231  0.95368097  0.71666519     0.09200
H2691       H  0.47462990  0.97085058  0.73851251     0.12500
H2692       H  0.51989564  0.97236935  0.68964350     0.14300
C2693       C  0.49376335  0.23922607  0.67484210    -0.01200
C2694       C  0.49209109  0.22061784  0.66397892    -0.09200
C2695       C  0.49267173  0.22025141  0.64232541    -0.18000
C2696       C  0.49455638  0.23867878  0.63079076     0.04400
C2697       C  0.49594338  0.25752199  0.64198858     0.18500
C2698       C  0.49584279  0.25758504  0.66373382    -0.19500
C2699       C  0.49716400  0.27626883  0.63144164    -0.20700
C2700       C  0.49699153  0.27679775  0.60995455    -0.19300
C2701       C  0.49595447  0.25857237  0.59842599     0.19900
C2702       C  0.49492359  0.23919490  0.60862016     0.02000
C2703       C  0.49447590  0.22126397  0.59613276    -0.14000
C2704       C  0.49510599  0.22258882  0.57452831    -0.11700
C2705       C  0.49593826  0.24175060  0.56460446     0.01600
C2706       C  0.49619209  0.25966724  0.57670311    -0.23900
H2707       H  0.49041646  0.20626326  0.67231684     0.09600
H2708       H  0.49130534  0.20536087  0.63506582     0.13200
H2709       H  0.49682116  0.27205461  0.67209371     0.11900
H2710       H  0.49811104  0.29067620  0.63988685     0.13100
H2711       H  0.49784066  0.29160002  0.60228517     0.12100
H2712       H  0.49389938  0.20599301  0.60259644     0.09200
H2713       H  0.49481527  0.20852092  0.56549764     0.12500
H2714       H  0.49713679  0.27453903  0.56916073     0.14300
C2715       C  0.49576599  0.24743356  0.05710283    -0.01200
C2716       C  0.49149652  0.26518556  0.06861363    -0.09200
C2717       C  0.49051670  0.26446411  0.09018195    -0.18000
C2718       C  0.49406795  0.24585643  0.10102682     0.04400
C2719       C  0.49897292  0.22799070  0.08924933     0.18500
C2720       C  0.49950654  0.22887424  0.06751068    -0.19500
C2721       C  0.50335800  0.20936555  0.09923745    -0.20700
C2722       C  0.50268492  0.20798136  0.12070490    -0.19300
C2723       C  0.49729863  0.22510633  0.13273171     0.19900
C2724       C  0.49289771  0.24430500  0.12307451     0.02000
C2725       C  0.48721388  0.26102114  0.13590668    -0.14000
C2726       C  0.48573300  0.25870640  0.15730725    -0.11700
C2727       C  0.48993339  0.23975741  0.16678025     0.01600
C2728       C  0.49597486  0.22306222  0.15437068    -0.23900
H2729       H  0.48866760  0.27968978  0.06083129     0.09600
H2730       H  0.48707731  0.27877665  0.09788967     0.13200
H2731       H  0.50318026  0.21516577  0.05863726     0.11900
H2732       H  0.50731361  0.19574440  0.09037313     0.13100
H2733       H  0.50612385  0.19331812  0.12793957     0.12100
H2734       H  0.48356384  0.27605871  0.12989452     0.09200
H2735       H  0.48139103  0.27194424  0.16654841     0.12500
H2736       H  0.49913717  0.20829201  0.16152646     0.14300
C2737       C  0.28738051  0.99031367  0.97414368    -0.01200
C2738       C  0.28770801  0.98682342  0.95277888    -0.09200
C2739       C  0.29949655  0.99941156  0.93976583    -0.18000
C2740       C  0.31137242  0.01596112  0.94783383     0.04400
C2741       C  0.31173413  0.01868191  0.96966916     0.18500
C2742       C  0.29987969  0.00591628  0.98249211    -0.19500
C2743       C  0.32337786  0.03456562  0.97859750    -0.20700
C2744       C  0.33417321  0.04833348  0.96628008    -0.19300
C2745       C  0.33359328  0.04659066  0.94470924     0.19900
C2746       C  0.32246089  0.03021895  0.93512319     0.02000
C2747       C  0.32254335  0.02920135  0.91325332    -0.14000
C2748       C  0.33280447  0.04405542  0.90147838    -0.11700
C2749       C  0.34327298  0.06046410  0.91100908     0.01600
C2750       C  0.34377872  0.06143702  0.93267862    -0.23900
H2751       H  0.27808803  0.97490057  0.94602409     0.09600
H2752       H  0.29860656  0.99611050  0.92344290     0.13200
H2753       H  0.29977927  0.00856848  0.99907052     0.11900
H2754       H  0.32382516  0.03659966  0.99524423     0.13100
H2755       H  0.34275231  0.06066917  0.97368614     0.12100
H2756       H  0.31456876  0.01728809  0.90477361     0.09200
H2757       H  0.33207643  0.04294089  0.88476625     0.12500
H2758       H  0.35190439  0.07397983  0.94025975     0.14300
C2759       C  0.27585553  0.24163639  0.97869705    -0.01200
C2760       C  0.26985086  0.24239810  0.95785331    -0.09200
C2761       C  0.27945219  0.22974216  0.94311774    -0.18000
C2762       C  0.29559235  0.21606418  0.94885100     0.04400
C2763       C  0.30200632  0.21602397  0.96996443     0.18500
C2764       C  0.29206220  0.22856624  0.98455105    -0.19500
C2765       C  0.31819930  0.20329878  0.97654723    -0.20700
C2766       C  0.32794918  0.19017664  0.96273680    -0.19300
C2767       C  0.32163497  0.18930353  0.94202237     0.19900
C2768       C  0.30550485  0.20228463  0.93461241     0.02000
C2769       C  0.29993040  0.20058775  0.91341915    -0.14000
C2770       C  0.30978561  0.18635980  0.90032979    -0.11700
C2771       C  0.32542102  0.17337764  0.90793421     0.01600
C2772       C  0.33132705  0.17522583  0.92878352    -0.23900
H2773       H  0.25734270  0.25246542  0.95304585     0.09600
H2774       H  0.27386477  0.23090260  0.92742065     0.13200
H2775       H  0.29692197  0.22815890  0.00063990     0.11900
H2776       H  0.32326135  0.20336436  0.99256435     0.13100
H2777       H  0.34034921  0.18039260  0.96839262     0.12100
H2778       H  0.28789004  0.20990159  0.90658854     0.09200
H2779       H  0.30499053  0.18537787  0.88427890     0.12500
H2780       H  0.34359012  0.16554065  0.93491022     0.14300
C2781       C  0.42248066  0.15453761  0.91558034    -0.01200
C2782       C  0.42720593  0.14704263  0.93536024    -0.09200
C2783       C  0.43784179  0.15927618  0.94972826    -0.18000
C2784       C  0.44361269  0.17972271  0.94489085     0.04400
C2785       C  0.43868087  0.18719757  0.92477143     0.18500
C2786       C  0.42866092  0.17448676  0.91028111    -0.19500
C2787       C  0.44321558  0.20753246  0.91936999    -0.20700
C2788       C  0.45242121  0.22074448  0.93357204    -0.19300
C2789       C  0.45780742  0.21381175  0.95336390     0.19900
C2790       C  0.45374380  0.19316131  0.95930573     0.02000
C2791       C  0.46012370  0.18693752  0.97933601    -0.14000
C2792       C  0.47044378  0.20055819  0.99266502    -0.11700
C2793       C  0.47447643  0.22091271  0.98666923     0.01600
C2794       C  0.46755382  0.22745307  0.96711998    -0.23900
H2795       H  0.42241789  0.13170835  0.93983457     0.09600
H2796       H  0.44078680  0.15250873  0.96466708     0.13200
H2797       H  0.42467959  0.18054916  0.89514523     0.11900
H2798       H  0.43936130  0.21335471  0.90412035     0.13100
H2799       H  0.45557242  0.23646373  0.92894604     0.12100
H2800       H  0.45784198  0.17149706  0.98495371     0.09200
H2801       H  0.47576828  0.19489143  0.00750777     0.12500
H2802       H  0.46992944  0.24327339  0.96239234     0.14300
C2803       C  0.31124871  0.09307295  0.81646097    -0.01200
C2804       C  0.29136223  0.09003651  0.82436171    -0.09200
C2805       C  0.27713092  0.07747407  0.81387043    -0.18000
C2806       C  0.28243206  0.06772596  0.79498384     0.04400
C2807       C  0.30209345  0.07232901  0.78632020     0.18500
C2808       C  0.31633149  0.08460814  0.79722141    -0.19500
C2809       C  0.30773652  0.06408989  0.76714476    -0.20700
C2810       C  0.29456195  0.05075259  0.75663992    -0.19300
C2811       C  0.27568009  0.04484174  0.76533009     0.19900
C2812       C  0.26926140  0.05323971  0.78460077     0.02000
C2813       C  0.25037559  0.04610972  0.79296368    -0.14000
C2814       C  0.23865462  0.03099254  0.78281985    -0.11700
C2815       C  0.24514448  0.02262578  0.76389303     0.01600
C2816       C  0.26349447  0.03007091  0.75507668    -0.23900
H2817       H  0.28720978  0.09645982  0.83926032     0.09600
H2818       H  0.26225860  0.07540061  0.82106393     0.13200
H2819       H  0.33171647  0.08708124  0.79103934     0.11900
H2820       H  0.32257725  0.06778301  0.76033483     0.13100
H2821       H  0.29950029  0.04447539  0.74191295     0.12100
H2822       H  0.24459840  0.05143180  0.80765042     0.09200
H2823       H  0.22471476  0.02542357  0.79016682     0.12500
H2824       H  0.26853950  0.02413366  0.74024608     0.14300
C2825       C  0.42909050  0.07671269  0.83347049    -0.01200
C2826       C  0.42685392  0.05536282  0.83129246    -0.09200
C2827       C  0.44219408  0.04350358  0.82186316    -0.18000
C2828       C  0.46036529  0.05266562  0.81393675     0.04400
C2829       C  0.46276008  0.07428907  0.81638316     0.18500
C2830       C  0.44733832  0.08601289  0.82631391    -0.19500
C2831       C  0.48020425  0.08417172  0.80828489    -0.20700
C2832       C  0.49485018  0.07320138  0.79695318    -0.19300
C2833       C  0.49262463  0.05199497  0.79371807     0.19900
C2834       C  0.47573830  0.04130723  0.80283872     0.02000
C2835       C  0.47460641  0.01978616  0.79985566    -0.14000
C2836       C  0.48840459  0.00969834  0.78679274    -0.11700
C2837       C  0.50394190  0.02053981  0.77640450     0.01600
C2838       C  0.50661935  0.04153600  0.78066870    -0.23900
H2839       H  0.41300294  0.04772439  0.83670519     0.09600
H2840       H  0.43903955  0.02728000  0.82050509     0.13200
H2841       H  0.44923599  0.10253803  0.82777562     0.11900
H2842       H  0.48221390  0.10063518  0.81017908     0.13100
H2843       H  0.50778176  0.08144883  0.79030409     0.12100
H2844       H  0.46293943  0.01035635  0.80696519     0.09200
H2845       H  0.48640641  0.99334065  0.78409782     0.12500
H2846       H  0.51874230  0.04996437  0.77282516     0.14300
C2847       C  0.45546395  0.22270097  0.73991647    -0.01200
C2848       C  0.44990548  0.20236118  0.73536026    -0.09200
C2849       C  0.43424102  0.19251100  0.74637400    -0.18000
C2850       C  0.42359236  0.20273973  0.76250425     0.04400
C2851       C  0.42869622  0.22367511  0.76648610     0.18500
C2852       C  0.44442542  0.23343378  0.75516762    -0.19500
C2853       C  0.41866782  0.23448945  0.78231172    -0.20700
C2854       C  0.40474390  0.22455610  0.79527061    -0.19300
C2855       C  0.40033907  0.20362200  0.79257418     0.19900
C2856       C  0.40898097  0.19264120  0.77558091     0.02000
C2857       C  0.40354113  0.17168345  0.77317877    -0.14000
C2858       C  0.39204512  0.16154984  0.78825777    -0.11700
C2859       C  0.38515112  0.17201479  0.80583278     0.01600
C2860       C  0.38846652  0.19323888  0.80750991    -0.23900
H2861       H  0.45823207  0.19375592  0.72367096     0.09600
H2862       H  0.43130864  0.17669250  0.74229275     0.13200
H2863       H  0.44843641  0.24930066  0.75855351     0.11900
H2864       H  0.42224570  0.25054019  0.78522362     0.13100
H2865       H  0.39795113  0.23312613  0.80794845     0.12100
H2866       H  0.40871851  0.16244127  0.76034828     0.09200
H2867       H  0.38958069  0.14510243  0.78680277     0.12500
H2868       H  0.38324250  0.20129918  0.82124285     0.14300
C2869       C  0.73563037  0.24372082  0.95974393    -0.01200
C2870       C  0.71622466  0.23721696  0.95243109    -0.09200
C2871       C  0.70504385  0.24899979  0.93811688    -0.18000
C2872       C  0.71277155  0.26801156  0.93079502     0.04400
C2873       C  0.73258694  0.27440235  0.93796972     0.18500
C2874       C  0.74389482  0.26212613  0.95190549    -0.19500
C2875       C  0.74077914  0.29332718  0.93169936    -0.20700
C2876       C  0.72938711  0.30643691  0.91902522    -0.19300
C2877       C  0.70967620  0.30078499  0.91196075     0.19900
C2878       C  0.70129948  0.28125324  0.91723693     0.02000
C2879       C  0.68162690  0.27607150  0.90904923    -0.14000
C2880       C  0.67026758  0.29015837  0.89722353    -0.11700
C2881       C  0.67807510  0.30985114  0.89307656     0.01600
C2882       C  0.69807046  0.31481445  0.90007499    -0.23900
H2883       H  0.70924723  0.22326929  0.95831446     0.09600
H2884       H  0.69009247  0.24312335  0.93361520     0.13200
H2885       H  0.75908330  0.26719215  0.95696178     0.11900
H2886       H  0.75589440  0.29828143  0.93709025     0.13100
H2887       H  0.73594916  0.32122205  0.91492255     0.12100
H2888       H  0.67446024  0.26135188  0.91173432     0.09200
H2889       H  0.65498078  0.28577692  0.89185242     0.12500
H2890       H  0.70444575  0.32988699  0.89677501     0.14300
C2891       C  0.58266477  0.33707597  0.92081382    -0.01200
C2892       C  0.59078103  0.31833884  0.92792417    -0.09200
C2893       C  0.58087445  0.30703941  0.94317446    -0.18000
C2894       C  0.56209159  0.31394013  0.95182811     0.04400
C2895       C  0.55415931  0.33333350  0.94520452     0.18500
C2896       C  0.56459189  0.34484319  0.92991970    -0.19500
C2897       C  0.53561075  0.34080006  0.95350296    -0.20700
C2898       C  0.52446424  0.32916023  0.96771020    -0.19300
C2899       C  0.53155039  0.30973175  0.97396387     0.19900
C2900       C  0.55065502  0.30196861  0.96635810     0.02000
C2901       C  0.55711599  0.28219303  0.97303086    -0.14000
C2902       C  0.54465472  0.27030098  0.98586025    -0.11700
C2903       C  0.52562981  0.27776731  0.99272837     0.01600
C2904       C  0.51927966  0.29763203  0.98716080    -0.23900
H2905       H  0.60498376  0.31217838  0.92151441     0.09600
H2906       H  0.58822248  0.29286037  0.94754011     0.13200
H2907       H  0.55825665  0.35936482  0.92458915     0.11900
H2908       H  0.52947522  0.35558115  0.94868673     0.13100
H2909       H  0.50996481  0.33521883  0.97351556     0.12100
H2910       H  0.57134092  0.27516720  0.96818914     0.09200
H2911       H  0.54959887  0.25486429  0.98991148     0.12500
H2912       H  0.50435065  0.30324102  0.99232123     0.14300
C2913       C  0.75562708  0.45349443  0.75299026    -0.01200
C2914       C  0.76244674  0.44601459  0.77217105    -0.09200
C2915       C  0.75020780  0.43248628  0.78364535    -0.18000
C2916       C  0.73050108  0.42615382  0.77635861     0.04400
C2917       C  0.72417695  0.43291993  0.75639873     0.18500
C2918       C  0.73680191  0.44620136  0.74489775    -0.19500
C2919       C  0.70491342  0.42706695  0.74832703    -0.20700
C2920       C  0.69135189  0.41530576  0.76000057    -0.19300
C2921       C  0.69672273  0.40906839  0.78002836     0.19900
C2922       C  0.71653121  0.41401971  0.78837785     0.02000
C2923       C  0.72114905  0.40721055  0.80865239    -0.14000
C2924       C  0.70639682  0.39682763  0.82042121    -0.11700
C2925       C  0.68658613  0.39272505  0.81242948     0.01600
C2926       C  0.68208659  0.39846631  0.79198963    -0.23900
H2927       H  0.77687698  0.45139852  0.77883743     0.09600
H2928       H  0.75632940  0.42780520  0.79843945     0.13200
H2929       H  0.73157869  0.45149992  0.72984936     0.11900
H2930       H  0.70006940  0.43206955  0.73306025     0.13100
H2931       H  0.67634932  0.41145947  0.75348201     0.12100
H2932       H  0.73585317  0.41005596  0.81604805     0.09200
H2933       H  0.71041374  0.39247723  0.83610720     0.12500
H2934       H  0.66688475  0.39530299  0.78554673     0.14300
C2935       C  0.57377512  0.41615145  0.82919315    -0.01200
C2936       C  0.57571529  0.41892061  0.80774377    -0.09200
C2937       C  0.56079672  0.42947432  0.79637400    -0.18000
C2938       C  0.54314361  0.43786618  0.80600626     0.04400
C2939       C  0.54146661  0.43592926  0.82785154     0.18500
C2940       C  0.55662617  0.42494271  0.83922966    -0.19500
C2941       C  0.52474534  0.44511391  0.83811348    -0.20700
C2942       C  0.51005325  0.45664006  0.82721385    -0.19300
C2943       C  0.51132504  0.45875074  0.80567609     0.19900
C2944       C  0.52749192  0.44869056  0.79473209     0.02000
C2945       C  0.52739684  0.44997817  0.77291889    -0.14000
C2946       C  0.51312509  0.46233541  0.76258281    -0.11700
C2947       C  0.49838539  0.47383378  0.77347481     0.01600
C2948       C  0.49694329  0.47129034  0.79499803    -0.23900
H2949       H  0.58887019  0.41271781  0.79945943     0.09600
H2950       H  0.56377158  0.43107788  0.78007100     0.13200
H2951       H  0.55498141  0.42313095  0.85580808     0.11900
H2952       H  0.52326705  0.44376007  0.85474961     0.13100
H2953       H  0.49765511  0.46402179  0.83570472     0.12100
H2954       H  0.53823007  0.44172411  0.76335854     0.09200
H2955       H  0.51401235  0.46339959  0.74587794     0.12500
H2956       H  0.48533762  0.47984015  0.80352119     0.14300
C2957       C  0.59391524  0.31603407  0.80843592    -0.01200
C2958       C  0.59156078  0.32211432  0.78774000    -0.09200
C2959       C  0.57860002  0.31130346  0.77420835    -0.18000
C2960       C  0.56731783  0.29393958  0.78093762     0.04400
C2961       C  0.57053780  0.28714322  0.80161890     0.18500
C2962       C  0.58369193  0.29817406  0.81510502    -0.19500
C2963       C  0.56024443  0.26963360  0.80885364    -0.20700
C2964       C  0.54650366  0.25894943  0.79613047    -0.19300
C2965       C  0.54240023  0.26569707  0.77594885     0.19900
C2966       C  0.55274668  0.28328105  0.76803196     0.02000
C2967       C  0.54759193  0.28975582  0.74776000    -0.14000
C2968       C  0.53265185  0.27939319  0.73600527    -0.11700
C2969       C  0.52244457  0.26201608  0.74379223     0.01600
C2970       C  0.52770044  0.25514551  0.76377288    -0.23900
H2971       H  0.59942187  0.33565869  0.78200089     0.09600
H2972       H  0.57759287  0.31708347  0.75862699     0.13200
H2973       H  0.58545609  0.29315991  0.83100749     0.11900
H2974       H  0.56270484  0.26425108  0.82453872     0.13100
H2975       H  0.53869905  0.24553986  0.80228028     0.12100
H2976       H  0.55444790  0.30309781  0.74069294     0.09200
H2977       H  0.52876221  0.28540372  0.72086466     0.12500
H2978       H  0.52030602  0.24153506  0.76997197     0.14300
C2979       C  0.06708457  0.50462421  0.24896832    -0.01200
C2980       C  0.07797861  0.52319177  0.25088758    -0.09200
C2981       C  0.09959389  0.52364784  0.25003711    -0.18000
C2982       C  0.11124642  0.50539184  0.24728693     0.04400
C2983       C  0.10017283  0.48657450  0.24514856     0.18500
C2984       C  0.07836569  0.48635810  0.24595082    -0.25900
C2985       C  0.11093956  0.46805183  0.24235657    -0.20700
C2986       C  0.13248563  0.46774264  0.24190323    -0.19300
C2987       C  0.14387132  0.48594900  0.24421333     0.19900
C2988       C  0.13343821  0.50508396  0.24675228     0.02000
C2989       C  0.14571540  0.52302276  0.24879390    -0.14000
C2990       C  0.16734240  0.52195374  0.24857184    -0.11700
C2991       C  0.17759497  0.50304921  0.24636375     0.01600
C2992       C  0.16567157  0.48510076  0.24408058    -0.23900
H2993       H  0.06970414  0.53758354  0.25279840     0.09600
H2994       H  0.10670194  0.53856559  0.25161840     0.13200
H2995       H  0.07017198  0.47185792  0.24456519     0.11900
H2996       H  0.10263263  0.45365349  0.24063932     0.13100
H2997       H  0.14031197  0.45311067  0.23985268     0.12100
H2998       H  0.13910007  0.53813852  0.25068908     0.09200
H2999       H  0.17612175  0.53603785  0.25046255     0.12500
H3000       H  0.17338744  0.47041420  0.24196743     0.14300
C3001       C  0.74189435  0.56341643  0.00138888    -0.01200
C3002       C  0.72352311  0.57497758  0.00148210    -0.09200
C3003       C  0.72395788  0.59656477  0.00122894    -0.18000
C3004       C  0.74292669  0.60748444  0.00074927     0.04400
C3005       C  0.76151581  0.59572325  0.00063532     0.18500
C3006       C  0.76084271  0.57403820  0.00100638    -0.19500
C3007       C  0.78073431  0.60565546  0.99997215    -0.20700
C3008       C  0.78195435  0.62703467  0.99924200    -0.19300
C3009       C  0.76399598  0.63912722  0.99928590     0.19900
C3010       C  0.74419395  0.62956885  0.00022536     0.02000
C3011       C  0.72659881  0.64257917  0.00059351    -0.14000
C3012       C  0.72861001  0.66404378  0.00000940    -0.11700
C3013       C  0.74813644  0.67340789  0.99885883     0.01600
C3014       C  0.76577094  0.66076176  0.99844190    -0.23900
H3015       H  0.70866517  0.56728359  0.00193661     0.09600
H3016       H  0.70917051  0.60426459  0.00131436     0.13200
H3017       H  0.77520051  0.56539071  0.00052027     0.11900
H3018       H  0.79497323  0.59680192  0.99990233     0.13100
H3019       H  0.79709945  0.63417286  0.99863235     0.12100
H3020       H  0.71105355  0.63664072  0.00138304     0.09200
H3021       H  0.71471958  0.67341046  0.00019197     0.12500
H3022       H  0.78096529  0.66780846  0.99779284     0.14300
C3023       C  0.71478194  0.49645012  0.97200504    -0.01200
C3024       C  0.72518932  0.48450872  0.95733844    -0.09200
C3025       C  0.71451371  0.47103351  0.94440554    -0.18000
C3026       C  0.69279896  0.46872153  0.94582857     0.04400
C3027       C  0.68198636  0.48173706  0.95982236     0.18500
C3028       C  0.69304336  0.49553130  0.97279709    -0.19500
C3029       C  0.66033342  0.48045125  0.96103453    -0.20700
C3030       C  0.64929707  0.46626528  0.94896207    -0.19300
C3031       C  0.65962405  0.45266046  0.93562888     0.19900
C3032       C  0.68157308  0.45374847  0.93402789     0.02000
C3033       C  0.69154478  0.43937648  0.92110596    -0.14000
C3034       C  0.68038566  0.42470958  0.91014254    -0.11700
C3035       C  0.65871403  0.42351763  0.91135243     0.01600
C3036       C  0.64832205  0.43774161  0.92412068    -0.23900
H3037       H  0.74191357  0.48527454  0.95621713     0.09600
H3038       H  0.72385614  0.46252537  0.93360248     0.13200
H3039       H  0.68487447  0.50485679  0.98404764     0.11900
H3040       H  0.65187401  0.49039383  0.97150382     0.13100
H3041       H  0.63259630  0.46566931  0.95036866     0.12100
H3042       H  0.70809353  0.43870851  0.91932131     0.09200
H3043       H  0.68908114  0.41414634  0.90052072     0.12500
H3044       H  0.63160989  0.43701879  0.92536230     0.14300
C3045       C  0.92902586  0.34577246  0.06360662    -0.01200
C3046       C  0.92111174  0.34059549  0.04404299    -0.09200
C3047       C  0.93304202  0.32949039  0.02990885    -0.18000
C3048       C  0.95338401  0.32308434  0.03495324     0.04400
C3049       C  0.96173257  0.32940740  0.05435109     0.18500
C3050       C  0.94958353  0.34059738  0.06838396    -0.19500
C3051       C  0.98198109  0.32402958  0.05992300    -0.20700
C3052       C  0.99398387  0.31196406  0.04688874    -0.19300
C3053       C  0.98590406  0.30468750  0.02813244     0.19900
C3054       C  0.96555405  0.31021869  0.02176392     0.02000
C3055       C  0.95805792  0.30196469  0.00287728    -0.14000
C3056       C  0.96993685  0.28810655  0.99134843    -0.11700
C3057       C  0.98977575  0.28227423  0.99802034     0.01600
C3058       C  0.99786987  0.29126926  0.01608067    -0.23900
H3059       H  0.90536508  0.34459196  0.03981166     0.09600
H3060       H  0.92578089  0.32589262  0.01530391     0.13200
H3061       H  0.95601019  0.34472461  0.08335625     0.11900
H3062       H  0.98848501  0.32893490  0.07461570     0.13100
H3063       H  0.00950660  0.30780449  0.05179723     0.12100
H3064       H  0.94280025  0.30531657  0.99696246     0.09200
H3065       H  0.96319227  0.28133078  0.97756177     0.12500
H3066       H  0.01340850  0.28736164  0.02115085     0.14300
C3067       C  0.91619788  0.32865086  0.17915031    -0.01200
C3068       C  0.93531309  0.33669322  0.18555700    -0.09200
C3069       C  0.94630216  0.32799805  0.20194446    -0.18000
C3070       C  0.93871144  0.31055968  0.21248021     0.04400
C3071       C  0.91924189  0.30241440  0.20609009     0.18500
C3072       C  0.90805481  0.31165139  0.18973364    -0.19500
C3073       C  0.91130843  0.28486086  0.21578831    -0.20700
C3074       C  0.92259825  0.27481919  0.23118869    -0.19300
C3075       C  0.94200457  0.28221015  0.23747719     0.19900
C3076       C  0.95009810  0.30052342  0.22860643     0.02000
C3077       C  0.96957915  0.30760741  0.23580826    -0.14000
C3078       C  0.98115808  0.29618105  0.25000211    -0.11700
C3079       C  0.97359415  0.27763918  0.25778526     0.01600
C3080       C  0.95378263  0.27097312  0.25198268    -0.23900
H3081       H  0.94185550  0.35000039  0.17791242     0.09600
H3082       H  0.96087659  0.33514378  0.20571171     0.13200
H3083       H  0.89326834  0.30531144  0.18493098     0.11900
H3084       H  0.89647144  0.27857075  0.21110029     0.13100
H3085       H  0.91625496  0.26096338  0.23798566     0.12100
H3086       H  0.97658811  0.32162120  0.23039874     0.09200
H3087       H  0.99648413  0.30145687  0.25436563     0.12500
H3088       H  0.94801936  0.25649144  0.25796607     0.14300
C3089       C  0.92958714  0.42498097  0.15441209    -0.01200
C3090       C  0.94919851  0.43021280  0.14690822    -0.09200
C3091       C  0.96311664  0.44147357  0.15918279    -0.18000
C3092       C  0.95801827  0.44719930  0.17969845     0.04400
C3093       C  0.93820007  0.44138518  0.18723734     0.18500
C3094       C  0.92411577  0.43090935  0.17445446    -0.19500
C3095       C  0.93267978  0.44552689  0.20770955    -0.20700
C3096       C  0.94641373  0.45534830  0.22098374    -0.19300
C3097       C  0.96578068  0.46183075  0.21395750     0.19900
C3098       C  0.97186942  0.45811372  0.19317926     0.02000
C3099       C  0.99141001  0.46568427  0.18688876    -0.14000
C3100       C  0.00411733  0.47674760  0.20061218    -0.11700
C3101       C  0.99793305  0.48038904  0.22109303     0.01600
C3102       C  0.97891364  0.47235946  0.22765283    -0.23900
H3103       H  0.95382534  0.42544031  0.13153849     0.09600
H3104       H  0.97794724  0.44492832  0.15245188     0.13200
H3105       H  0.90917588  0.42635950  0.18053302     0.11900
H3106       H  0.91769689  0.44091143  0.21358686     0.13100
H3107       H  0.94170435  0.45819082  0.23681128     0.12100
H3108       H  0.99702753  0.46377597  0.17132355     0.09200
H3109       H  0.01858624  0.48292482  0.19496769     0.12500
H3110       H  0.97409943  0.47451603  0.24355551     0.14300
C3111       C  0.77871897  0.24450136  0.02442267    -0.01200
C3112       C  0.79827117  0.23843529  0.03172272    -0.09200
C3113       C  0.80919755  0.25064326  0.04593484    -0.18000
C3114       C  0.80090079  0.26949707  0.05321757     0.04400
C3115       C  0.78086846  0.27528825  0.04606033     0.18500
C3116       C  0.76997638  0.26272703  0.03210958    -0.19500
C3117       C  0.77196025  0.29388749  0.05239943    -0.20700
C3118       C  0.78283554  0.30735093  0.06509408    -0.19300
C3119       C  0.80274180  0.30238493  0.07206948     0.19900
C3120       C  0.81190316  0.28314244  0.06678167     0.02000
C3121       C  0.83182094  0.27872513  0.07495300    -0.14000
C3122       C  0.84250359  0.29325715  0.08695816    -0.11700
C3123       C  0.83371520  0.31251979  0.09102909     0.01600
C3124       C  0.81376765  0.31687379  0.08385506    -0.23900
H3125       H  0.80543493  0.22448439  0.02595499     0.09600
H3126       H  0.82430405  0.24519085  0.05051040     0.13200
H3127       H  0.75467199  0.26736670  0.02693449     0.11900
H3128       H  0.75665574  0.29831322  0.04705573     0.13100
H3129       H  0.77571734  0.32189294  0.06927139     0.12100
H3130       H  0.83964783  0.26434323  0.07207328     0.09200
H3131       H  0.85802646  0.28977303  0.09234941     0.12500
H3132       H  0.80702468  0.33185076  0.08706169     0.14300
C3133       C  0.77352624  0.49497835  0.02171214    -0.01200
C3134       C  0.78280796  0.47852036  0.01112996    -0.09200
C3135       C  0.79723070  0.46572728  0.02084077    -0.18000
C3136       C  0.80303455  0.46888875  0.04171465     0.04400
C3137       C  0.79424844  0.48604659  0.05224934     0.18500
C3138       C  0.77972804  0.49893238  0.04219773    -0.19500
C3139       C  0.79968965  0.48995340  0.07289051    -0.20700
C3140       C  0.81323379  0.47691736  0.08345801    -0.19300
C3141       C  0.82169241  0.45957463  0.07370041     0.19900
C3142       C  0.81690876  0.45544185  0.05259899     0.02000
C3143       C  0.82583764  0.43773390  0.04347349    -0.14000
C3144       C  0.83831268  0.42435673  0.05496542    -0.11700
C3145       C  0.84256751  0.42809814  0.07592829     0.01600
C3146       C  0.83449740  0.44604100  0.08507476    -0.23900
H3147       H  0.77881493  0.47541406  0.99512866     0.09600
H3148       H  0.80339740  0.45337668  0.01157293     0.13200
H3149       H  0.77272326  0.51161552  0.05056613     0.11900
H3150       H  0.79319420  0.50304306  0.08102766     0.13100
H3151       H  0.81686087  0.48025346  0.09950695     0.12100
H3152       H  0.82318536  0.43351486  0.02755456     0.09200
H3153       H  0.84435853  0.41073685  0.04739673     0.12500
H3154       H  0.83759040  0.44915676  0.10128281     0.14300
C3155       C  0.82033668  0.38934095  0.17227668    -0.01200
C3156       C  0.80098852  0.39294951  0.16322945    -0.09200
C3157       C  0.78570990  0.40375747  0.17398479    -0.18000
C3158       C  0.78957650  0.41154406  0.19411275     0.04400
C3159       C  0.80889727  0.40662096  0.20360535     0.18500
C3160       C  0.82404046  0.39563963  0.19262374    -0.19500
C3161       C  0.81342384  0.41358733  0.22360471    -0.20700
C3162       C  0.79959606  0.42620014  0.23408154    -0.19300
C3163       C  0.78099234  0.43230911  0.22473773     0.19900
C3164       C  0.77546836  0.42477990  0.20478934     0.02000
C3165       C  0.75650927  0.43159862  0.19608764    -0.14000
C3166       C  0.74414418  0.44603611  0.20632221    -0.11700
C3167       C  0.75010500  0.45401412  0.22560459     0.01600
C3168       C  0.76825556  0.44655534  0.23496104    -0.23900
H3169       H  0.79806735  0.38832480  0.14736327     0.09600
H3170       H  0.77133893  0.40638397  0.16585442     0.13200
H3171       H  0.83918456  0.39300454  0.19947074     0.11900
H3172       H  0.82801775  0.40970670  0.23098849     0.13100
H3173       H  0.80379577  0.43175884  0.24935820     0.12100
H3174       H  0.75110190  0.42656267  0.18111050     0.09200
H3175       H  0.73024135  0.45157715  0.19871338     0.12500
H3176       H  0.77279273  0.45230142  0.25008081     0.14300
C3177       C  0.89363977  0.67836380  0.31567260    -0.01200
C3178       C  0.89939247  0.69833222  0.32147984    -0.09200
C3179       C  0.91239743  0.71002902  0.30901897    -0.18000
C3180       C  0.92037367  0.70196017  0.29034360     0.04400
C3181       C  0.91327036  0.68230190  0.28373917     0.18500
C3182       C  0.89995274  0.67077276  0.29633920    -0.19500
C3183       C  0.92015001  0.67393296  0.26500513    -0.20700
C3184       C  0.93460160  0.68433458  0.25305296    -0.19300
C3185       C  0.94272983  0.70320904  0.25969545     0.19900
C3186       C  0.93559183  0.71239374  0.27834705     0.02000
C3187       C  0.94461160  0.73123061  0.28461833    -0.14000
C3188       C  0.96029961  0.74031458  0.27310581    -0.11700
C3189       C  0.96754802  0.73107542  0.25493623     0.01600
C3190       C  0.95842118  0.71267465  0.24811383    -0.23900
H3191       H  0.89437386  0.70475973  0.33610215     0.09600
H3192       H  0.91625693  0.72514214  0.31470742     0.13200
H3193       H  0.89540231  0.65541975  0.29153057     0.11900
H3194       H  0.91462705  0.65904945  0.25976023     0.13100
H3195       H  0.93987491  0.67729668  0.23879727     0.12100
H3196       H  0.94022670  0.73917588  0.29856022     0.09200
H3197       H  0.96682978  0.75472163  0.27850759     0.12500
H3198       H  0.96406097  0.70531353  0.23415949     0.14300
C3199       C  0.96102581  0.70779894  0.51008332    -0.01200
C3200       C  0.94103459  0.71460465  0.50538496    -0.09200
C3201       C  0.92864372  0.70373215  0.49134727    -0.18000
C3202       C  0.93612470  0.68578052  0.48133745     0.04400
C3203       C  0.95601885  0.67833503  0.48718863     0.18500
C3204       C  0.96826740  0.68942024  0.50137498    -0.19500
C3205       C  0.96389849  0.66031911  0.47824779    -0.20700
C3206       C  0.95272851  0.64982115  0.46309381    -0.19300
C3207       C  0.93359057  0.65731218  0.45616706     0.19900
C3208       C  0.92495937  0.67536965  0.46526607     0.02000
C3209       C  0.90597637  0.68274048  0.45722537    -0.14000
C3210       C  0.89641846  0.67306773  0.44045357    -0.11700
C3211       C  0.90506870  0.65545697  0.43136902     0.01600
C3212       C  0.92338547  0.64729310  0.43965709    -0.23900
H3213       H  0.93531943  0.72887335  0.51195099     0.09600
H3214       H  0.91350060  0.71004345  0.48831433     0.13200
H3215       H  0.98386674  0.68428356  0.50494896     0.11900
H3216       H  0.97897712  0.65447425  0.48277776     0.13100
H3217       H  0.95941015  0.63608264  0.45629285     0.12100
H3218       H  0.89840947  0.69631589  0.46311055     0.09200
H3219       H  0.88212304  0.67951682  0.43444488     0.12500
H3220       H  0.93019787  0.63372450  0.43262508     0.14300
C3221       C  0.92392229  0.58430122  0.33811178    -0.01200
C3222       C  0.93723843  0.57054595  0.34833851    -0.09200
C3223       C  0.95347592  0.56075633  0.33765659    -0.18000
C3224       C  0.95693212  0.56451637  0.31632028     0.04400
C3225       C  0.94383697  0.57908848  0.30636150     0.18500
C3226       C  0.92773857  0.58870816  0.31720554    -0.19500
C3227       C  0.94649744  0.58375240  0.28541768    -0.20700
C3228       C  0.96132407  0.57359127  0.27377113    -0.19300
C3229       C  0.97396095  0.55856280  0.28277390     0.19900
C3230       C  0.97240212  0.55407942  0.30427789     0.02000
C3231       C  0.98596738  0.53893017  0.31245986    -0.14000
C3232       C  0.99963385  0.52803534  0.29958770    -0.11700
C3233       C  0.00017755  0.53190177  0.27828180     0.01600
C3234       C  0.98765780  0.54750201  0.27011977    -0.23900
H3235       H  0.93487685  0.56704283  0.36453004     0.09600
H3236       H  0.96289068  0.55011754  0.34638622     0.13200
H3237       H  0.91793183  0.59964594  0.30911075     0.11900
H3238       H  0.93668736  0.59503464  0.27783721     0.13100
H3239       H  0.96260999  0.57721477  0.25746168     0.12100
H3240       H  0.98597180  0.53484172  0.32861913     0.09200
H3241       H  0.00917416  0.51594118  0.30614316     0.12500
H3242       H  0.98810598  0.55053369  0.25362338     0.14300
C3243       C  0.83399302  0.56700022  0.41419486    -0.01200
C3244       C  0.81634038  0.55721063  0.40626198    -0.09200
C3245       C  0.80610311  0.54207232  0.41756764    -0.18000
C3246       C  0.81289070  0.53654545  0.43762831     0.04400
C3247       C  0.83085432  0.54651369  0.44565372     0.18500
C3248       C  0.84152607  0.56120484  0.43370149    -0.19500
C3249       C  0.83754051  0.54236320  0.46586360    -0.20700
C3250       C  0.82635642  0.52914625  0.47854625    -0.19300
C3251       C  0.80856421  0.51920372  0.47114229     0.19900
C3252       C  0.80199175  0.52217495  0.45032442     0.02000
C3253       C  0.78458009  0.51087800  0.44326711    -0.14000
C3254       C  0.77354799  0.49809097  0.45663038    -0.11700
C3255       C  0.77937022  0.49623828  0.47739063     0.01600
C3256       C  0.79704325  0.50658937  0.48453261    -0.23900
H3257       H  0.81024063  0.56149891  0.39122136     0.09600
H3258       H  0.79246235  0.53556969  0.41047933     0.13200
H3259       H  0.85499420  0.56897132  0.44004460     0.11900
H3260       H  0.85116972  0.54988808  0.47213214     0.13100
H3261       H  0.83160580  0.52677042  0.49431595     0.12100
H3262       H  0.77905061  0.51164216  0.42753290     0.09200
H3263       H  0.75994905  0.49011698  0.45089550     0.12500
H3264       H  0.80161402  0.50503246  0.50062337     0.14300
C3265       C  0.75394237  0.75532949  0.45829143    -0.01200
C3266       C  0.74407525  0.73685225  0.45267403    -0.09200
C3267       C  0.75355695  0.72271189  0.43941240    -0.18000
C3268       C  0.77336248  0.72659885  0.43111282     0.04400
C3269       C  0.78253938  0.74607530  0.43541295     0.18500
C3270       C  0.77284389  0.76015800  0.44887342    -0.19500
C3271       C  0.80174796  0.75107951  0.42688350    -0.20700
C3272       C  0.81246017  0.73687271  0.41487422    -0.19300
C3273       C  0.80440820  0.71715854  0.41134501     0.19900
C3274       C  0.78464518  0.71174000  0.41919545     0.02000
C3275       C  0.77750882  0.69142824  0.41548719    -0.14000
C3276       C  0.78979663  0.67698854  0.40505165    -0.11700
C3277       C  0.80948083  0.68229627  0.39773967     0.01600
C3278       C  0.81640581  0.70262082  0.40059043    -0.23900
H3279       H  0.72908759  0.73300372  0.45902903     0.09600
H3280       H  0.74513424  0.70874276  0.43621058     0.13200
H3281       H  0.78064607  0.77438729  0.45290908     0.11900
H3282       H  0.80873861  0.76596666  0.42984835     0.13100
H3283       H  0.82746955  0.74114218  0.40881107     0.12100
H3284       H  0.76276046  0.68604331  0.42099460     0.09200
H3285       H  0.78400069  0.66145950  0.40310173     0.12500
H3286       H  0.83159307  0.70703148  0.39507739     0.14300
C3287       C  0.80970308  0.59656614  0.31589685    -0.01200
C3288       C  0.81669684  0.58962884  0.29661283    -0.09200
C3289       C  0.80449615  0.57662194  0.28441531    -0.18000
C3290       C  0.78489492  0.56985234  0.29130350     0.04400
C3291       C  0.77730405  0.57805336  0.31022018     0.18500
C3292       C  0.78958509  0.59143022  0.32214013    -0.19500
C3293       C  0.75791262  0.57207949  0.31766447    -0.20700
C3294       C  0.74632914  0.55725923  0.30729301    -0.19300
C3295       C  0.75381511  0.54812807  0.28917744     0.19900
C3296       C  0.77295214  0.55463766  0.28060953     0.02000
C3297       C  0.77962145  0.54507095  0.26213193    -0.14000
C3298       C  0.76815836  0.52924390  0.25301354    -0.11700
C3299       C  0.74970219  0.52230031  0.26193835     0.01600
C3300       C  0.74249722  0.53210762  0.27989415    -0.23900
H3301       H  0.83202979  0.59361657  0.29122357     0.09600
H3302       H  0.81117335  0.57160078  0.27002301     0.13200
H3303       H  0.78386055  0.59687833  0.33691739     0.11900
H3304       H  0.75193939  0.57844794  0.33195879     0.13100
H3305       H  0.73162543  0.55255509  0.31376126     0.12100
H3306       H  0.79373267  0.54929694  0.25442065     0.09200
H3307       H  0.77383413  0.52241440  0.23883165     0.12500
H3308       H  0.72836906  0.52682381  0.28713049     0.14300
C3309       C  0.57231993  0.58429449  0.66236183    -0.01200
C3310       C  0.55848827  0.59535219  0.67476765    -0.09200
C3311       C  0.54258103  0.58536483  0.68531314    -0.18000
C3312       C  0.54040099  0.56372831  0.68427454     0.04400
C3313       C  0.55458882  0.55258647  0.67164193     0.18500
C3314       C  0.57005722  0.56297328  0.66047687    -0.19500
C3315       C  0.55373884  0.53108153  0.67081576    -0.20700
C3316       C  0.53951624  0.52032012  0.68268843    -0.19300
C3317       C  0.52545948  0.53079802  0.69534156     0.19900
C3318       C  0.52525192  0.55266812  0.69593098     0.02000
C3319       C  0.51014942  0.56239632  0.70848203    -0.14000
C3320       C  0.49667549  0.55083633  0.72079108    -0.11700
C3321       C  0.49786182  0.52932403  0.72100387     0.01600
C3322       C  0.51193330  0.51944438  0.70782553    -0.23900
H3323       H  0.56014982  0.61187561  0.67647109     0.09600
H3324       H  0.53270008  0.59491728  0.69469486     0.13200
H3325       H  0.58100697  0.55437227  0.65116116     0.11900
H3326       H  0.56451281  0.52248105  0.66131636     0.13100
H3327       H  0.53963726  0.50363772  0.68210661     0.12100
H3328       H  0.50853313  0.57889435  0.70930116     0.09200
H3329       H  0.48585187  0.55876084  0.73079259     0.12500
H3330       H  0.51266339  0.50275319  0.70767722     0.14300
C3331       C  0.67371961  0.68979785  0.59842703    -0.01200
C3332       C  0.69416936  0.68596318  0.59233980    -0.09200
C3333       C  0.70490039  0.69995753  0.58008788    -0.18000
C3334       C  0.69548031  0.71841894  0.57327486     0.04400
C3335       C  0.67511306  0.72281752  0.58029640     0.18500
C3336       C  0.66449404  0.70860356  0.59282230    -0.19500
C3337       C  0.66521871  0.74104120  0.57417115    -0.20700
C3338       C  0.67472336  0.75452821  0.56043938    -0.19300
C3339       C  0.69436855  0.75014353  0.55246301     0.19900
C3340       C  0.70523289  0.73225377  0.55915929     0.02000
C3341       C  0.72509211  0.72858622  0.55082227    -0.14000
C3342       C  0.73321267  0.74135691  0.53560098    -0.11700
C3343       C  0.72202537  0.75832193  0.52818149     0.01600
C3344       C  0.70290037  0.76308542  0.53722066    -0.23900
H3345       H  0.70184767  0.67173593  0.59658990     0.09600
H3346       H  0.72039637  0.69557603  0.57584711     0.13200
H3347       H  0.64874352  0.71188002  0.59754596     0.11900
H3348       H  0.64978817  0.74464119  0.57962868     0.13100
H3349       H  0.66641161  0.76822166  0.55560576     0.12100
H3350       H  0.73459064  0.71569709  0.55531908     0.09200
H3351       H  0.74824750  0.73765338  0.52920906     0.12500
H3352       H  0.69417032  0.77622733  0.53160742     0.14300
C3353       C  0.66649810  0.57281847  0.58827820    -0.01200
C3354       C  0.65632473  0.55579042  0.57956254    -0.09200
C3355       C  0.66751807  0.54018984  0.56948155    -0.18000
C3356       C  0.68937944  0.54113626  0.56780025     0.04400
C3357       C  0.69957457  0.55820563  0.57711978     0.18500
C3358       C  0.68819159  0.57366269  0.58713138    -0.19500
C3359       C  0.72113686  0.55998711  0.57622326    -0.20700
C3360       C  0.73287089  0.54547880  0.56571680    -0.19300
C3361       C  0.72335622  0.52881477  0.55580306     0.19900
C3362       C  0.70152561  0.52611981  0.55692623     0.02000
C3363       C  0.69290953  0.50880168  0.54669347    -0.14000
C3364       C  0.70534502  0.49538865  0.53507169    -0.11700
C3365       C  0.72672036  0.49872445  0.53332208     0.01600
C3366       C  0.73561079  0.51516251  0.54426550    -0.23900
H3367       H  0.63963066  0.55455145  0.58042335     0.09600
H3368       H  0.65864244  0.52766296  0.56303230     0.13200
H3369       H  0.69640822  0.58653462  0.59401711     0.11900
H3370       H  0.72898609  0.57289422  0.58345251     0.13100
H3371       H  0.74950892  0.54752683  0.56501949     0.12100
H3372       H  0.67656147  0.50550542  0.54699514     0.09200
H3373       H  0.69806740  0.48280583  0.52677791     0.12500
H3374       H  0.75219103  0.51763209  0.54339726     0.14300
C3375       C  0.68827929  0.60143111  0.67951933    -0.01200
C3376       C  0.70801716  0.59897915  0.67087897    -0.09200
C3377       C  0.72203970  0.58479796  0.67905564    -0.18000
C3378       C  0.71671811  0.57249063  0.69621520     0.04400
C3379       C  0.69751444  0.57646707  0.70613987     0.18500
C3380       C  0.68350599  0.59078111  0.69772514    -0.19500
C3381       C  0.69205442  0.56553685  0.72392350    -0.20700
C3382       C  0.70497021  0.55022833  0.73168745    -0.19300
C3383       C  0.72335746  0.54508993  0.72150981     0.19900
C3384       C  0.72950511  0.55610185  0.70359312     0.02000
C3385       C  0.74770548  0.54964188  0.69334752    -0.14000
C3386       C  0.75924554  0.53293589  0.70059061    -0.11700
C3387       C  0.75326247  0.52224731  0.71839807     0.01600
C3388       C  0.73539071  0.52864764  0.72890381    -0.23900
H3389       H  0.71234290  0.60729002  0.65704533     0.09600
H3390       H  0.73674992  0.58354679  0.67135256     0.13200
H3391       H  0.66844922  0.59283106  0.70479568     0.11900
H3392       H  0.67756143  0.56865359  0.73172312     0.13100
H3393       H  0.70021991  0.54190904  0.74538750     0.12100
H3394       H  0.75310272  0.55676864  0.67933603     0.09200
H3395       H  0.77272371  0.52812133  0.69192235     0.12500
H3396       H  0.73072600  0.52075847  0.74288767     0.14300
C3397       C  0.57874008  0.65122097  0.57409794    -0.01200
C3398       C  0.58545030  0.65003930  0.55358694    -0.09200
C3399       C  0.57502014  0.66083060  0.53794473    -0.18000
C3400       C  0.55738576  0.67299931  0.54246303     0.04400
C3401       C  0.54968986  0.67254684  0.56304971     0.18500
C3402       C  0.56057054  0.66201562  0.57864462    -0.19500
C3403       C  0.53159865  0.68323587  0.56813543    -0.20700
C3404       C  0.52135078  0.69504855  0.55339171    -0.19300
C3405       C  0.52933260  0.69703110  0.53339209     0.19900
C3406       C  0.54743500  0.68603781  0.52756797     0.02000
C3407       C  0.55527750  0.68937602  0.50744198    -0.14000
C3408       C  0.54593768  0.70355321  0.49399336    -0.11700
C3409       C  0.52819924  0.71458531  0.49988057     0.01600
C3410       C  0.51966539  0.71058414  0.51944850    -0.23900
H3411       H  0.59949054  0.64170684  0.54983988     0.09600
H3412       H  0.58130117  0.65966091  0.52256395     0.13200
H3413       H  0.55529259  0.66276972  0.59453980     0.11900
H3414       H  0.52548604  0.68269291  0.58371476     0.13100
H3415       H  0.50750983  0.70334222  0.55790939     0.12100
H3416       H  0.56911240  0.68188567  0.50195746     0.09200
H3417       H  0.55310957  0.70632552  0.47915895     0.12500
H3418       H  0.50559821  0.71837039  0.52413676     0.14300
C3419       C  0.59967568  0.68084791  0.68719030    -0.01200
C3420       C  0.59485290  0.70131464  0.68242672    -0.09200
C3421       C  0.58327018  0.71336871  0.69607585    -0.18000
C3422       C  0.57568609  0.70511624  0.71484212     0.04400
C3423       C  0.58095747  0.68444098  0.71975582     0.18500
C3424       C  0.59314296  0.67271707  0.70617821    -0.19500
C3425       C  0.57334006  0.67528445  0.73777777    -0.20700
C3426       C  0.55989087  0.68596649  0.75067650    -0.19300
C3427       C  0.55403460  0.70620814  0.74608619     0.19900
C3428       C  0.56234134  0.71628767  0.72843608     0.02000
C3429       C  0.55649538  0.73695214  0.72489406    -0.14000
C3430       C  0.54200897  0.74668926  0.73749326    -0.11700
C3431       C  0.53285395  0.73630395  0.75409203     0.01600
C3432       C  0.53943934  0.71624675  0.75870326    -0.23900
H3433       H  0.59974127  0.70795288  0.66788487     0.09600
H3434       H  0.57992108  0.72884839  0.69112280     0.13200
H3435       H  0.59659653  0.65680753  0.70994262     0.11900
H3436       H  0.57733404  0.65952629  0.74161624     0.13100
H3437       H  0.55379354  0.67823251  0.76418249     0.12100
H3438       H  0.56265546  0.74597282  0.71239124     0.09200
H3439       H  0.53767302  0.76243204  0.73400593     0.12500
H3440       H  0.53253484  0.70811648  0.77157555     0.14300
loop_ 
_geom_bond_atom_site_label_1 
_geom_bond_atom_site_label_2 
_geom_bond_distance 
_geom_bond_site_symmetry_2 
_ccdc_geom_bond_type 
O1           C17   1.278       .  A
O1           Zn7   2.037       .  S
C2           O18   1.277       .  A
C2           O15   1.275       .  A
C2         C3331   1.487       .  S
O3           C16   1.279       .  A
O3          Cd10   2.093       .  S
O4           C22   1.274       .  A
O4          Cd13   2.057       .  S
O5           C19   1.277       .  A
O5           Cd9   2.074       .  S
O6           C17   1.274       .  A
O6           Cd9   2.055       .  S
Zn7          O18   2.042       .  S
Zn7          O20   2.014       .  S
Zn7          O12   1.938       .  S
O8           C19   1.274       .  A
O8          Cd13   2.056       .  S
Cd9          O11   2.055       .  S
Cd9          O12   1.982       .  S
Cd10         O14   2.103       .  S
Cd10         O23   2.106       .  S
Cd10         O12   2.012       .  S
O11          C21   1.273       .  A
O12         Cd13   1.977       .  S
Cd13         O15   2.061       .  S
O14          C21   1.279       .  A
C16          O20   1.276       .  A
C16        C3397   1.472       .  S
C17        C3419   1.481       .  S
C19        C3375   1.480       .  S
C21        C3309   1.474       .  S
C22          O23   1.280       .  A
C22        C3353   1.491       .  S
O24          C40   1.276       .  A
O24         Zn30   2.019       .  S
C25          O41   1.273       .  A
C25          O38   1.275       .  A
C25        C3177   1.480       .  S
O26          C39   1.281       .  A
O26         Cd33   2.123       .  S
O27          C45   1.274       .  A
O27         Cd36   2.051       .  S
O28          C42   1.278       .  A
O28         Cd32   2.097       .  S
O29          C40   1.275       .  A
O29         Cd32   2.066       .  S
Zn30         O41   2.011       .  S
Zn30         O43   2.001       .  S
Zn30         O35   1.933       .  S
O31          C42   1.274       .  A
O31         Cd36   2.063       .  S
Cd32         O34   2.059       .  S
Cd32         O35   1.994       .  S
Cd33         O37   2.109       .  S
Cd33         O46   2.103       .  S
Cd33         O35   2.028       .  S
O34          C44   1.275       .  A
O35         Cd36   1.982       .  S
Cd36         O38   2.065       .  S
O37          C44   1.281       .  A
C39          O43   1.274       .  A
C39        C3221   1.494       .  S
C40        C3287   1.482       .  S
C42        C3277   1.490       .  S
C44        C3243   1.480       .  S
C45          O46   1.279       .  A
C45        C3211   1.479       .  S
O47          C63   1.277       .  A
O47         Zn53   2.033       .  S
C48          O64   1.277       .  A
C48          O61   1.277       .  A
C48        C3145   1.490       .  S
O49          C62   1.276       .  A
O49         Cd56   2.086       .  S
O50          C68   1.274       .  A
O50         Cd59   2.063       .  S
O51          C65   1.275       .  A
O51         Cd55   2.064       .  S
O52          C63   1.273       .  A
O52         Cd55   2.065       .  S
Zn53         O64   2.043       .  S
Zn53         O66   2.000       .  S
Zn53         O58   1.934       .  S
O54          C65   1.276       .  A
O54         Cd59   2.074       .  S
Cd55         O57   2.061       .  S
Cd55         O58   1.984       .  S
Cd56         O60   2.095       .  S
Cd56         O69   2.089       .  S
Cd56         O58   2.015       .  S
O57          C67   1.275       .  A
O58         Cd59   1.985       .  S
Cd59         O61   2.073       .  S
O60          C67   1.278       .  A
C62          O66   1.272       .  A
C62        C3155   1.464       .  S
C63        C3089   1.476       .  S
C65        C3045   1.482       .  S
C67        C3067   1.484       .  S
C68          O69   1.277       .  A
C68        C3123   1.468       .  S
C70        C3001   1.499       .  S
C70          C71   1.416   1_554  A
C70          C75   1.415       .  A
C71          C72   1.406       .  A
C71          H76   1.083       .  S
C72        C3023   1.487       .  S
C72          C73   1.402       .  A
C73          C74   1.403   1_556  A
C73          H77   1.084       .  S
C74        C3133   1.495       .  S
C74          C75   1.408       .  A
C75          H78   1.083       .  S
C79        C2979   1.493       .  S
C79          C80   1.412       .  A
C79          C84   1.413       .  A
C80          C81   1.409       .  A
C80          H85   1.083       .  S
C81        C3101   1.494   1_455  S
C81          C82   1.406       .  A
C82          C83   1.400       .  A
C82          H86   1.084   1_455  S
C83        C3233   1.484       .  S
C83          C84   1.403       .  A
C84          H87   1.083       .  S
O88         C104   1.276       .  A
O88         Zn94   2.038       .  S
C89         O105   1.276       .  A
C89         O102   1.274       .  A
C89        C2881   1.486       .  S
O90         C103   1.281       .  A
O90         Cd97   2.117       .  S
O91         C109   1.273       .  A
O91        Cd100   2.038       .  S
O92         C106   1.276       .  A
O92         Cd96   2.078       .  S
O93         C104   1.275       .  A
O93         Cd96   2.071       .  S
Zn94        O105   2.031       .  S
Zn94        O107   1.978       .  S
Zn94         O99   1.935       .  S
O95         C106   1.274       .  A
O95        Cd100   2.065       .  S
Cd96         O98   2.044       .  S
Cd96         O99   1.985       .  S
Cd97        O101   2.121       .  S
Cd97        O110   2.134       .  S
Cd97         O99   2.045       .  S
O98         C108   1.274       .  A
O99        Cd100   1.980       .  S
Cd100       O102   2.065       .  S
O101        C108   1.282       .  A
C103        O107   1.272       .  A
C103       C2891   1.482       .  S
C104       C2957   1.489       .  S
C106       C2925   1.485       .  S
C108       C2935   1.490       .  S
C109        O110   1.282       .  A
C109       C3035   1.495       .  S
O111        C127   1.277       .  A
O111       Zn117   2.031       .  S
C112        O128   1.276       .  A
C112        O125   1.277       .  A
C112       C2825   1.487       .  S
O113        C126   1.278       .  A
O113       Cd120   2.101       .  S
O114        C132   1.275       .  A
O114       Cd123   2.061       .  S
O115        C129   1.276       .  A
O115       Cd119   2.073       .  S
O116        C127   1.274       .  A
O116       Cd119   2.067       .  S
Zn117       O128   2.032       .  S
Zn117       O130   1.997       .  S
Zn117       O122   1.927       .  S
O118        C129   1.276       .  A
O118       Cd123   2.080       .  S
Cd119       O121   2.052       .  S
Cd119       O122   1.980       .  S
Cd120       O124   2.108       .  S
Cd120       O133   2.104       .  S
Cd120       O122   2.016       .  S
O121        C131   1.274       .  A
O122       Cd123   1.981       .  S
Cd123       O125   2.075       .  S
O124        C131   1.280       .  A
C126        O130   1.273       .  A
C126       C2859   1.468       .  S
C127       C2781   1.478       .  S
C129       C2749   1.485       .  S
C131       C2771   1.489       .  S
C132        O133   1.280       .  A
C132       C2803   1.474       .  S
C134       C2715   1.482       .  S
C134        C135   1.406       .  A
C134        C139   1.409       .  A
C135        C136   1.399       .  A
C135        H140   1.084       .  S
C136       C2903   1.472   1_554  S
C136        C137   1.397   1_554  A
C137        C138   1.406   1_556  A
C137        H141   1.083       .  S
C138       C2793   1.494   1_554  S
C138        C139   1.410       .  A
C139        H142   1.083       .  S
C143       C2693   1.484       .  S
C143        C144   1.403       .  A
C143        C148   1.406       .  A
C144        C145   1.404       .  A
C144        H149   1.084       .  S
C145       C2847   1.486       .  S
C145        C146   1.406       .  A
C146        C147   1.409       .  A
C146        H150   1.083       .  S
C147       C2969   1.497       .  S
C147        C148   1.410       .  A
C148        H151   1.083       .  S
C152       C2649   1.496       .  S
C152        C153   1.414   1_565  A
C152        C157   1.417       .  A
C153        C154   1.402       .  A
C153        H158   1.083       .  S
C154       C2837   1.485       .  S
C154        C155   1.397   1_545  A
C155        C156   1.405       .  A
C155        H159   1.082   1_565  S
C156       C2683   1.503       .  S
C156        C157   1.412       .  A
C157        H160   1.081       .  S
C161       C2583   1.485       .  S
C161        C162   1.407       .  A
C161        C166   1.407   1_565  A
C162        C163   1.405       .  A
C162        H167   1.084       .  S
C163       C2605   1.485       .  S
C163        C164   1.403       .  A
C164        C165   1.404   1_565  A
C164        H168   1.084   1_655  S
C165       C2627   1.486   1_655  S
C165        C166   1.406       .  A
C166        H169   1.083       .  S
C170       C2539   1.488       .  S
C170        C171   1.409       .  A
C170        C175   1.407   1_554  A
C171        C172   1.408       .  A
C171        H176   1.083       .  S
C172       C2573   1.498       .  S
C172        C173   1.408       .  A
C173        C174   1.405   1_554  A
C173        H177   1.083       .  S
C174       C2759   1.483       .  S
C174        C175   1.403       .  A
C175        H178   1.084       .  S
C179       C2495   1.496       .  S
C179        C180   1.411   1_554  A
C179        C184   1.415       .  A
C180        C181   1.405       .  A
C180        H185   1.083       .  S
C181       C2737   1.486       .  S
C181        C182   1.400       .  A
C182        C183   1.406   1_556  A
C182        H186   1.082   1_565  S
C183       C2529   1.505       .  S
C183        C184   1.414       .  A
C184        H187   1.082       .  S
C188       C2429   1.496       .  S
C188        C189   1.415   1_565  A
C188        C193   1.415       .  A
C189        C190   1.406       .  A
C189        H194   1.083       .  S
C190       C2485   1.493       .  S
C190        C191   1.401   1_545  A
C191        C192   1.401       .  A
C191        H195   1.084       .  S
C192       C2463   1.484       .  S
C192        C193   1.407       .  A
C193        H196   1.083       .  S
C197       C2385   1.491       .  S
C197        C198   1.409       .  A
C197        C202   1.410       .  A
C198        C199   1.405       .  A
C198        H203   1.083   1_455  S
C199       C3057   1.489   1_455  S
C199        C200   1.403       .  A
C200        C201   1.402       .  A
C200        H204   1.082   1_556  S
C201       C2419   1.489   1_556  S
C201        C202   1.406       .  A
C202        H205   1.083       .  S
C206       C2353   1.493       .  S
C206        C207   1.414       .  A
C206        C211   1.411   1_455  A
C207        C208   1.411       .  A
C207        H212   1.083       .  S
C208       C2375   1.494       .  S
C208        C209   1.405       .  A
C209        C210   1.397   1_455  A
C209        H213   1.084       .  S
C210       C3079   1.475       .  S
C210        C211   1.399       .  A
C211        H214   1.083       .  S
O215        C231   1.276       .  A
O215       Zn221   2.029       .  S
C216        O232   1.276       .  A
C216        O229   1.276       .  A
C216       C2517   1.482       .  S
O217        C230   1.281       .  A
O217       Cd224   2.110       .  S
O218        C236   1.272       .  A
O218       Cd227   2.052       .  S
O219        C233   1.274       .  A
O219       Cd223   2.059       .  S
O220        C231   1.273       .  A
O220       Cd223   2.062       .  S
Zn221       O232   2.037       .  S
Zn221       O234   2.001       .  S
Zn221       O226   1.941       .  S
O222        C233   1.277       .  A
O222       Cd227   2.085       .  S
Cd223       O225   2.047       .  S
Cd223       O226   1.985       .  S
Cd224       O228   2.116       .  S
Cd224       O237   2.109       .  S
Cd224       O226   2.030       .  S
O225        C235   1.273       .  A
O226       Cd227   1.996       .  S
Cd227       O229   2.077       .  S
O228        C235   1.280       .  A
C230        O234   1.275       .  A
C230       C2473   1.487       .  S
C231       C2639   1.484       .  S
C233       C2407   1.485       .  S
C235       C2363   1.491       .  S
C236        O237   1.279       .  A
C236       C2561   1.472       .  S
O238        C254   1.277       .  A
O238       Zn244   2.044       .  S
C239        O255   1.274       .  A
C239        O252   1.274       .  A
C239       C2671   1.478       .  S
O240        C253   1.280       .  A
O240       Cd247   2.097       .  S
O241        C259   1.273       .  A
O241       Cd250   2.050       .  S
O242        C256   1.277       .  A
O242       Cd246   2.076       .  S
O243        C254   1.273       .  A
O243       Cd246   2.056       .  S
Zn244       O255   2.038       .  S
Zn244       O257   2.002       .  S
Zn244       O249   1.945       .  S
O245        C256   1.275       .  A
O245       Cd250   2.059       .  S
Cd246       O248   2.065       .  S
Cd246       O249   1.985       .  S
Cd247       O251   2.100       .  S
Cd247       O260   2.110       .  S
Cd247       O249   2.025       .  S
O248        C258   1.275       .  A
O249       Cd250   1.974       .  S
Cd250       O252   2.062       .  S
O251        C258   1.279       .  A
C253        O257   1.276       .  A
C253       C2297   1.485       .  S
C254       C2275   1.485       .  S
C256       C2253   1.481       .  S
C258       C2319   1.475       .  S
C259        O260   1.279       .  A
C259       C2231   1.489       .  S
O261        C277   1.276       .  A
O261       Zn267   2.025       .  S
C262        O278   1.274       .  A
C262        O275   1.275       .  A
C262       C2155   1.482       .  S
O263        C276   1.279       .  A
O263       Cd270   2.107       .  S
O264        C282   1.275       .  A
O264       Cd273   2.056       .  S
O265        C279   1.277       .  A
O265       Cd269   2.080       .  S
O266        C277   1.276       .  A
O266       Cd269   2.073       .  S
Zn267       O278   2.010       .  S
Zn267       O280   2.004       .  S
Zn267       O272   1.927       .  S
O268        C279   1.274       .  A
O268       Cd273   2.070       .  S
Cd269       O271   2.046       .  S
Cd269       O272   1.987       .  S
Cd270       O274   2.090       .  S
Cd270       O283   2.102       .  S
Cd270       O272   2.025       .  S
O271        C281   1.272       .  A
O272       Cd273   1.989       .  S
Cd273       O275   2.069       .  S
O274        C281   1.277       .  A
C276        O280   1.275       .  A
C276       C2451   1.490       .  S
C277       C2617   1.485       .  S
C279       C2177   1.480       .  S
C281       C2199   1.463       .  S
C282        O283   1.279       .  A
C282       C2209   1.489       .  S
C284       C2121   1.491       .  S
C284        C285   1.413   1_655  A
C284        C289   1.410       .  A
C285        C286   1.413       .  A
C285        H290   1.082       .  S
C286       C2165   1.499       .  S
C286        C287   1.406   1_455  A
C287        C288   1.396       .  A
C287        H291   1.083       .  S
C288       C3199   1.474       .  S
C288        C289   1.400       .  A
C289        H292   1.084       .  S
C293       C2099   1.480       .  S
C293        C294   1.405       .  A
C293        C298   1.406       .  A
C294        C295   1.403       .  A
C294        H299   1.084       .  S
C295       C2265   1.483   1_545  S
C295        C296   1.401   1_545  A
C296        C297   1.404   1_565  A
C296        H300   1.083       .  S
C297       C2143   1.485   1_545  S
C297        C298   1.406       .  A
C298        H301   1.083       .  S
C302       C2077   1.490       .  S
C302        C303   1.411       .  A
C302        C307   1.411       .  A
C303        C304   1.405       .  A
C303        H308   1.083       .  S
C304       C2331   1.483       .  S
C304        C305   1.400       .  A
C305        C306   1.403       .  A
C305        H309   1.084       .  S
C306       C2221   1.483       .  S
C306        C307   1.405       .  A
C307        H310   1.083       .  S
C311       C2067   1.483       .  S
C311        C312   1.406       .  A
C311        C316   1.407   1_455  A
C312        C313   1.402       .  A
C312        H317   1.083       .  S
C313       C2187   1.478       .  S
C313        C314   1.401       .  A
C314        C315   1.403   1_455  A
C314        H318   1.084       .  S
C315       C3189   1.483       .  S
C315        C316   1.403       .  A
C316        H319   1.083       .  S
C320       C2033   1.485       .  S
C320        C321   1.409   1_565  A
C320        C325   1.408       .  A
C321        C322   1.407       .  A
C321        H326   1.083       .  S
C322       C2815   1.494       .  S
C322        C323   1.406   1_545  A
C323        C324   1.403       .  A
C323        H327   1.083       .  S
C324       C2243   1.479       .  S
C324        C325   1.403       .  A
C325        H328   1.084       .  S
C329       C2011   1.491       .  S
C329        C330   1.410       .  A
C329        C334   1.408   1_556  A
C330        C331   1.409       .  A
C330        H335   1.083       .  S
C331       C2869   1.495       .  S
C331        C332   1.406       .  A
C332        C333   1.405   1_556  A
C332        H336   1.082       .  S
C333       C3111   1.489       .  S
C333        C334   1.405       .  A
C334        H337   1.083       .  S
C338       C1989   1.483       .  S
C338        C339   1.410       .  A
C338        C343   1.410       .  A
C339        C340   1.403       .  A
C339        H344   1.084       .  S
C340       C2309   1.481       .  S
C340        C341   1.401       .  A
C341        C342   1.401       .  A
C341        H345   1.084       .  S
C342       C3431   1.486       .  S
C342        C343   1.405       .  A
C343        H346   1.084       .  S
C347       C1967   1.490       .  S
C347        C348   1.406       .  A
C347        C352   1.410       .  A
C348        C349   1.402       .  A
C348        H353   1.084       .  S
C349       C2287   1.485       .  S
C349        C350   1.403       .  A
C350        C351   1.409       .  A
C350        H354   1.082       .  S
C351       C3409   1.499       .  S
C351        C352   1.413       .  A
C352        H355   1.083       .  S
C356       C1945   1.493       .  S
C356        C357   1.411       .  A
C356        C361   1.414       .  A
C357        C358   1.404       .  A
C357        H362   1.083       .  S
C358       C3343   1.487       .  S
C358        C359   1.402       .  A
C359        C360   1.403       .  A
C359        H363   1.083       .  S
C360       C3265   1.496       .  S
C360        C361   1.411       .  A
C361        H364   1.083       .  S
C365       C1923   1.491       .  S
C365        C366   1.413       .  A
C365        C370   1.414       .  A
C366        C367   1.405       .  A
C366        H371   1.083       .  S
C367       C3321   1.485       .  S
C367        C368   1.399       .  A
C368        C369   1.401       .  A
C368        H372   1.084       .  S
C369       C2947   1.487       .  S
C369        C370   1.405       .  A
C370        H373   1.083       .  S
C374       C1901   1.490       .  S
C374        C375   1.406       .  A
C374        C379   1.410       .  A
C375        C376   1.403       .  A
C375        H380   1.083       .  S
C376       C3387   1.488       .  S
C376        C377   1.403       .  A
C377        C378   1.405       .  A
C377        H381   1.083       .  S
C378       C2913   1.490       .  S
C378        C379   1.409       .  A
C379        H382   1.083       .  S
C383       C1879   1.499       .  S
C383        C384   1.415       .  A
C383        C388   1.412       .  A
C384        C385   1.409       .  A
C384        H389   1.083       .  S
C385       C3365   1.491       .  S
C385        C386   1.405       .  A
C386        C387   1.399       .  A
C386        H390   1.084       .  S
C387       C3255   1.479       .  S
C387        C388   1.403       .  A
C388        H391   1.083       .  S
C392       C1857   1.487       .  S
C392        C393   1.406       .  A
C392        C397   1.407       .  A
C393        C394   1.403       .  A
C393        H398   1.082       .  S
C394       C3299   1.490       .  S
C394        C395   1.405       .  A
C395        C396   1.406       .  A
C395        H399   1.083       .  S
C396       C3167   1.488       .  S
C396        C397   1.406       .  A
C397        H400   1.083       .  S
O401        C417   1.275       .  A
O401       Zn407   2.019       .  S
C402        O418   1.276       .  A
C402        O415   1.274       .  A
C402       C1791   1.486       .  S
O403        C416   1.279       .  A
O403       Cd410   2.114       .  S
O404        C422   1.274       .  A
O404       Cd413   2.045       .  S
O405        C419   1.276       .  A
O405       Cd409   2.076       .  S
O406        C417   1.275       .  A
O406       Cd409   2.067       .  S
Zn407       O418   2.030       .  S
Zn407       O420   1.989       .  S
Zn407       O412   1.933       .  S
O408        C419   1.276       .  A
O408       Cd413   2.075       .  S
Cd409       O411   2.068       .  S
Cd409       O412   1.994       .  S
Cd410       O414   2.095       .  S
Cd410       O423   2.108       .  S
Cd410       O412   2.027       .  S
O411        C421   1.275       .  A
O412       Cd413   1.988       .  S
Cd413       O415   2.073       .  S
O414        C421   1.278       .  A
C416        O420   1.273       .  A
C416       C1847   1.490       .  S
C417       C1747   1.481       .  S
C419       C1813   1.485       .  S
C421       C1781   1.472       .  S
C422        O423   1.281       .  A
C422       C1725   1.488       .  S
O424        C440   1.275       .  A
O424       Zn430   2.019       .  S
C425        O441   1.275       .  A
C425        O438   1.275       .  A
C425       C1627   1.478       .  S
O426        C439   1.280       .  A
O426       Cd433   2.113       .  S
O427        C445   1.276       .  A
O427       Cd436   2.054       .  S
O428        C442   1.275       .  A
O428       Cd432   2.070       .  S
O429        C440   1.276       .  A
O429       Cd432   2.072       .  S
Zn430       O441   2.019       .  S
Zn430       O443   1.977       .  S
Zn430       O435   1.920       .  S
O431        C442   1.276       .  A
O431       Cd436   2.073       .  S
Cd432       O434   2.046       .  S
Cd432       O435   1.980       .  S
Cd433       O437   2.106       .  S
Cd433       O446   2.106       .  S
Cd433       O435   2.029       .  S
O434        C444   1.274       .  A
O435       Cd436   1.984       .  S
Cd436       O438   2.078       .  S
O437        C444   1.280       .  A
C439        O443   1.271       .  A
C439       C1593   1.481       .  S
C440       C1671   1.485       .  S
C442       C1637   1.483       .  S
C444       C1681   1.488       .  S
C445        O446   1.281       .  A
C445       C1715   1.488       .  S
C447       C2705   1.488       .  S
C447        C448   1.412       .  A
C447        C452   1.413       .  A
C448        C449   1.404       .  A
C448        H453   1.083       .  S
C449       C1693   1.485       .  S
C449        C450   1.401       .  A
C450        C451   1.398       .  A
C450        H454   1.085       .  S
C451       C1583   1.480       .  S
C451        C452   1.404       .  A
C452        H455   1.083       .  S
O456        C472   1.276       .  A
O456       Zn462   2.035       .  S
C457        O473   1.278       .  A
C457        O470   1.276       .  A
C457       C1527   1.486       .  S
O458        C471   1.278       .  A
O458       Cd465   2.090       .  S
O459        C477   1.273       .  A
O459       Cd468   2.055       .  S
O460        C474   1.274       .  A
O460       Cd464   2.070       .  S
O461        C472   1.276       .  A
O461       Cd464   2.078       .  S
Zn462       O473   2.036       .  S
Zn462       O475   1.995       .  S
Zn462       O467   1.932       .  S
O463        C474   1.277       .  A
O463       Cd468   2.080       .  S
Cd464       O466   2.057       .  S
Cd464       O467   1.987       .  S
Cd465       O469   2.106       .  S
Cd465       O478   2.105       .  S
Cd465       O467   2.027       .  S
O466        C476   1.276       .  A
O467       Cd468   1.984       .  S
Cd468       O470   2.072       .  S
O469        C476   1.279       .  A
C471        O475   1.275       .  A
C471       C1483   1.482       .  S
C472       C1561   1.489       .  S
C474       C1505   1.469       .  S
C476       C1571   1.490       .  S
C477        O478   1.278       .  A
C477       C1473   1.477       .  S
C479       C1869   1.494       .  S
C479        C480   1.411       .  A
C479        C484   1.414       .  A
C480        C481   1.399       .  A
C480        H485   1.083       .  S
C481       C1495   1.478       .  S
C481        C482   1.398       .  A
C482        C483   1.403       .  A
C482        H486   1.083       .  S
C483       C1451   1.495       .  S
C483        C484   1.408       .  A
C484        H487   1.081       .  S
C488       C2001   1.486       .  S
C488        C489   1.406       .  A
C488        C493   1.406       .  A
C489        C490   1.407       .  A
C489        H494   1.083       .  S
C490       C1407   1.493       .  S
C490        C491   1.407       .  A
C491        C492   1.406       .  A
C491        H495   1.082   1_556  S
C492       C1417   1.493       .  S
C492        C493   1.406       .  A
C493        H496   1.083       .  S
O497        C513   1.276       .  A
O497       Zn503   2.036       .  S
C498        O514   1.276       .  A
C498        O511   1.275       .  A
C498       C1439   1.472       .  S
O499        C512   1.278       .  A
O499       Cd506   2.105       .  S
O500        C518   1.276       .  A
O500       Cd509   2.075       .  S
O501        C515   1.275       .  A
O501       Cd505   2.071       .  S
O502        C513   1.275       .  A
O502       Cd505   2.072       .  S
Zn503       O514   2.026       .  S
Zn503       O516   1.997       .  S
Zn503       O508   1.935       .  S
O504        C515   1.276       .  A
O504       Cd509   2.081       .  S
Cd505       O507   2.048       .  S
Cd505       O508   1.983       .  S
Cd506       O510   2.109       .  S
Cd506       O519   2.106       .  S
Cd506       O508   2.026       .  S
O507        C517   1.275       .  A
O508       Cd509   2.000       .  S
Cd509       O511   2.073       .  S
O510        C517   1.280       .  A
C512        O516   1.273       .  A
C512       C1307   1.489       .  S
C513       C1329   1.489       .  S
C515       C1429   1.487       .  S
C517       C1351   1.489       .  S
C518        O519   1.280       .  A
C518       C1373   1.478       .  S
C520       C2089   1.493       .  S
C520        C521   1.411       .  A
C520        C525   1.413       .  A
C521        C522   1.401       .  A
C521        H526   1.083       .  S
C522       C1461   1.478       .  S
C522        C523   1.398       .  A
C523        C524   1.405       .  A
C523        H527   1.084       .  S
C524       C1737   1.492       .  S
C524        C525   1.409       .  A
C525        H528   1.083       .  S
O529        C545   1.276       .  A
O529       Zn535   2.031       .  S
C530        O546   1.278       .  A
C530        O543   1.276       .  A
C530       C1297   1.491       .  S
O531        C544   1.278       .  A
O531       Cd538   2.100       .  S
O532        C550   1.274       .  A
O532       Cd541   2.060       .  S
O533        C547   1.275       .  A
O533       Cd537   2.073       .  S
O534        C545   1.276       .  A
O534       Cd537   2.062       .  S
Zn535       O546   2.038       .  S
Zn535       O548   2.020       .  S
Zn535       O540   1.947       .  S
O536        C547   1.276       .  A
O536       Cd541   2.081       .  S
Cd537       O539   2.059       .  S
Cd537       O540   1.987       .  S
Cd538       O542   2.109       .  S
Cd538       O551   2.096       .  S
Cd538       O540   2.015       .  S
O539        C549   1.275       .  A
O540       Cd541   1.995       .  S
Cd541       O543   2.080       .  S
O542        C549   1.279       .  A
C544        O548   1.275       .  A
C544       C1253   1.478       .  S
C545       C1219   1.482       .  S
C547       C1263   1.487       .  S
C549       C1197   1.493       .  S
C550        O551   1.279       .  A
C550       C1395   1.470       .  S
C552       C3013   1.495       .  S
C552        C553   1.411   1_556  A
C552        C557   1.412       .  A
C553        C554   1.409       .  A
C553        H558   1.083       .  S
C554       C1285   1.497       .  S
C554        C555   1.406   1_554  A
C555        C556   1.403       .  A
C555        H559   1.084       .  S
C556       C1175   1.485       .  S
C556        C557   1.407       .  A
C557        H560   1.083       .  S
O561        C577   1.275       .  A
O561       Zn567   2.016       .  S
C562        O578   1.274       .  A
C562        O575   1.275       .  A
C562       C1165   1.482       .  S
O563        C576   1.279       .  A
O563       Cd570   2.109       .  S
O564        C582   1.274       .  A
O564       Cd573   2.051       .  S
O565        C579   1.276       .  A
O565       Cd569   2.076       .  S
O566        C577   1.278       .  A
O566       Cd569   2.087       .  S
Zn567       O578   2.021       .  S
Zn567       O580   1.972       .  S
Zn567       O572   1.922       .  S
O568        C579   1.276       .  A
O568       Cd573   2.073       .  S
Cd569       O571   2.071       .  S
Cd569       O572   1.996       .  S
Cd570       O574   2.102       .  S
Cd570       O583   2.111       .  S
Cd570       O572   2.030       .  S
O571        C581   1.275       .  A
O572       Cd573   1.993       .  S
Cd573       O575   2.087       .  S
O574        C581   1.279       .  A
C576        O580   1.270       .  A
C576       C1099   1.485       .  S
C577       C1043   1.486       .  S
C579       C1109   1.486       .  S
C581       C1065   1.474       .  S
C582        O583   1.281       .  A
C582       C1131   1.490       .  S
C584       C2661   1.493       .  S
C584        C585   1.413   1_565  A
C584        C589   1.413       .  A
C585        C586   1.410       .  A
C585        H590   1.083       .  S
C586       C1153   1.500       .  S
C586        C587   1.406   1_545  A
C587        C588   1.402       .  A
C587        H591   1.083       .  S
C588       C1021   1.487       .  S
C588        C589   1.405       .  A
C589        H592   1.083       .  S
O593        C609   1.277       .  A
O593       Zn599   2.032       .  S
C594        O610   1.278       .  A
C594        O607   1.273       .  A
C594        C933   1.488       .  S
O595        C608   1.283       .  A
O595       Cd602   2.128       .  S
O596        C614   1.274       .  A
O596       Cd605   2.043       .  S
O597        C611   1.273       .  A
O597       Cd601   2.059       .  S
O598        C609   1.277       .  A
O598       Cd601   2.073       .  S
Zn599       O610   2.048       .  S
Zn599       O612   1.997       .  S
Zn599       O604   1.935       .  S
O600        C611   1.275       .  A
O600       Cd605   2.074       .  S
Cd601       O603   2.062       .  S
Cd601       O604   1.987       .  S
Cd602       O606   2.113       .  S
Cd602       O615   2.125       .  S
Cd602       O604   2.031       .  S
O603        C613   1.275       .  A
O604       Cd605   1.983       .  S
Cd605       O607   2.059       .  S
O606        C613   1.281       .  A
C608        O612   1.274       .  A
C608       C1033   1.494       .  S
C609        C967   1.485       .  S
C611        C977   1.482       .  S
C613       C1187   1.480       .  S
C614        O615   1.283       .  A
C614        C999   1.487       .  S
O616        C632   1.275       .  A
O616       Zn622   2.020       .  S
C617        O633   1.277       .  A
C617        O630   1.275       .  A
C617        C823   1.487       .  S
O618        C631   1.283       .  A
O618       Cd625   2.132       .  S
O619        C637   1.274       .  A
O619       Cd628   2.041       .  S
O620        C634   1.275       .  A
O620       Cd624   2.074       .  S
O621        C632   1.274       .  A
O621       Cd624   2.066       .  S
Zn622       O633   2.039       .  S
Zn622       O635   2.008       .  S
Zn622       O627   1.937       .  S
O623        C634   1.277       .  A
O623       Cd628   2.090       .  S
Cd624       O626   2.037       .  S
Cd624       O627   1.986       .  S
Cd625       O629   2.132       .  S
Cd625       O638   2.127       .  S
Cd625       O627   2.040       .  S
O626        C636   1.273       .  A
O627       Cd628   1.985       .  S
Cd628       O630   2.066       .  S
O629        C636   1.284       .  A
C631        O635   1.276       .  A
C631        C801   1.500       .  S
C632        C845   1.483       .  S
C634        C889   1.491       .  S
C636        C911   1.493       .  S
C637        O638   1.283       .  A
C637        C867   1.493       .  S
C639       C2133   1.497       .  S
C639        C640   1.414       .  A
C639        C644   1.416   1_655  A
C640        C641   1.401       .  A
C640        H645   1.083       .  S
C641       C1011   1.478       .  S
C641        C642   1.397       .  A
C642        C643   1.404   1_655  A
C642        H646   1.084       .  S
C643        C923   1.492       .  S
C643        C644   1.410       .  A
C644        H647   1.083       .  S
C648       C1913   1.491       .  S
C648        C649   1.412       .  A
C648        C653   1.414       .  A
C649        C650   1.405       .  A
C649        H654   1.083       .  S
C650       C1835   1.492   1_655  S
C650        C651   1.404       .  A
C651        C652   1.402       .  A
C651        H655   1.083   1_655  S
C652        C901   1.496       .  S
C652        C653   1.407       .  A
C653        H656   1.083       .  S
C657       C1935   1.488       .  S
C657        C658   1.411       .  A
C657        C662   1.412       .  A
C658        C659   1.406       .  A
C658        H663   1.083       .  S
C659       C1803   1.491       .  S
C659        C660   1.403       .  A
C660        C661   1.404       .  A
C660        H664   1.084       .  S
C661        C879   1.493       .  S
C661        C662   1.406       .  A
C662        H665   1.083       .  S
C666       C1957   1.487       .  S
C666        C667   1.411       .  A
C666        C671   1.413       .  A
C667        C668   1.403       .  A
C667        H672   1.084       .  S
C668       C1703   1.478   1_565  S
C668        C669   1.398   1_565  A
C669        C670   1.402   1_545  A
C669        H673   1.085       .  S
C670       C1143   1.489   1_565  S
C670        C671   1.409       .  A
C671        H674   1.083       .  S
C675       C2341   1.493       .  S
C675        C676   1.409   1_455  A
C675        C680   1.411       .  A
C676        C677   1.405       .  A
C676        H681   1.083       .  S
C677       C1077   1.487       .  S
C677        C678   1.403   1_655  A
C678        C679   1.407       .  A
C678        H682   1.083       .  S
C679       C1769   1.497       .  S
C679        C680   1.409       .  A
C680        H683   1.082       .  S
C684       C2397   1.487       .  S
C684        C685   1.411   1_455  A
C684        C689   1.408       .  A
C685        C686   1.407       .  A
C685        H690   1.083       .  S
C686       C1055   1.487       .  S
C686        C687   1.404   1_655  A
C687        C688   1.401       .  A
C687        H691   1.084       .  S
C688       C1759   1.481       .  S
C688        C689   1.401       .  A
C689        H692   1.084       .  S
C693       C1979   1.496       .  S
C693        C694   1.415       .  A
C693        C698   1.409       .  A
C694        C695   1.413       .  A
C694        H699   1.082       .  S
C695       C1385   1.504       .  S
C695        C696   1.408       .  A
C696        C697   1.403       .  A
C696        H700   1.081       .  S
C697       C1275   1.493       .  S
C697        C698   1.404       .  A
C698        H701   1.083       .  S
C702       C2595   1.488       .  S
C702        C703   1.409   1_545  A
C702        C707   1.413       .  A
C703        C704   1.398       .  A
C703        H708   1.084       .  S
C704       C1231   1.479       .  S
C704        C705   1.398       .  A
C705        C706   1.405   1_565  A
C705        H709   1.083       .  S
C706       C1615   1.499       .  S
C706        C707   1.411       .  A
C707        H710   1.082       .  S
C711       C2507   1.505       .  S
C711        C712   1.417       .  A
C711        C716   1.422   1_554  A
C712        C713   1.407       .  A
C712        H717   1.083       .  S
C713       C1363   1.487       .  S
C713        C714   1.399       .  A
C714        C715   1.398   1_554  A
C714        H718   1.085       .  S
C715        C813   1.491       .  S
C715        C716   1.410       .  A
C716        H719   1.083       .  S
C720       C1891   1.493       .  S
C720        C721   1.411       .  A
C720        C725   1.410       .  A
C721        C722   1.407       .  A
C721        H726   1.083       .  S
C722       C1121   1.489       .  S
C722        C723   1.403       .  A
C723        C724   1.403       .  A
C723        H727   1.084       .  S
C724       C1649   1.484       .  S
C724        C725   1.405       .  A
C725        H728   1.083       .  S
C729       C2991   1.493       .  S
C729        C730   1.413       .  A
C729        C734   1.414       .  A
C730        C731   1.404       .  A
C730        H735   1.083       .  S
C731       C1319   1.484       .  S
C731        C732   1.400       .  A
C732        C733   1.401       .  A
C732        H736   1.084       .  S
C733       C1539   1.488       .  S
C733        C734   1.407       .  A
C734        H737   1.083       .  S
C738       C2551   1.492       .  S
C738        C739   1.409       .  A
C738        C743   1.412       .  A
C739        C740   1.404       .  A
C739        H744   1.083   1_554  S
C740        C835   1.488   1_554  S
C740        C741   1.402       .  A
C741        C742   1.405       .  A
C741        H745   1.083       .  S
C742       C1341   1.490       .  S
C742        C743   1.409       .  A
C743        H746   1.083       .  S
C747       C2441   1.492       .  S
C747        C748   1.415       .  A
C747        C752   1.410   1_565  A
C748        C749   1.412       .  A
C748        H753   1.083       .  S
C749       C1209   1.490       .  S
C749        C750   1.405       .  A
C750        C751   1.396   1_565  A
C750        H754   1.085       .  S
C751       C1605   1.474       .  S
C751        C752   1.399       .  A
C752        H755   1.084       .  S
C756       C2727   1.488       .  S
C756        C757   1.409       .  A
C756        C761   1.408       .  A
C757        C758   1.404       .  A
C757        H762   1.083       .  S
C758       C1549   1.490       .  S
C758        C759   1.404       .  A
C759        C760   1.406       .  A
C759        H763   1.083       .  S
C760       C1659   1.490       .  S
C760        C761   1.407       .  A
C761        H764   1.083       .  S
C765       C2111   1.484       .  S
C765        C766   1.408       .  A
C765        C770   1.409       .  A
C766        C767   1.403       .  A
C766        H771   1.084       .  S
C767       C1825   1.484       .  S
C767        C768   1.402       .  A
C768        C769   1.403       .  A
C768        H772   1.084       .  S
C769       C1517   1.484       .  S
C769        C770   1.405       .  A
C770        H773   1.084       .  S
C774       C2055   1.482   1_655  S
C774        C775   1.406   1_655  A
C774        C779   1.405       .  A
C775        C776   1.404       .  A
C775        H780   1.083       .  S
C776        C857   1.485       .  S
C776        C777   1.404   1_455  A
C777        C778   1.405       .  A
C777        H781   1.083   1_554  S
C778        C989   1.486       .  S
C778        C779   1.404       .  A
C779        H782   1.083       .  S
C783       C2023   1.496       .  S
C783        C784   1.414       .  A
C783        C788   1.411   1_554  A
C784        C785   1.410       .  A
C784        H789   1.082       .  S
C785       C1241   1.498   1_545  S
C785        C786   1.406       .  A
C786        C787   1.401   1_554  A
C786        H790   1.083   1_545  S
C787        C955   1.489   1_545  S
C787        C788   1.404       .  A
C788        H791   1.083       .  S
C792       C2045   1.498       .  S
C792        C793   1.411   1_565  A
C792        C797   1.414       .  A
C793        C794   1.401       .  A
C793        H798   1.083       .  S
C794       C1087   1.478   1_455  S
C794        C795   1.399   1_545  A
C795        C796   1.404       .  A
C795        H799   1.083   1_455  S
C796        C945   1.495       .  S
C796        C797   1.410       .  A
C797        H800   1.082       .  S
C801        C802   1.405       .  A
C801        C806   1.409       .  A
C802        C803   1.393       .  A
C802        H815   1.083       .  S
C803        C804   1.411       .  A
C803        H816   1.077       .  S
C804        C810   1.435       .  A
C804        C805   1.423       .  A
C805        C807   1.403       .  A
C805        C806   1.420       .  A
C806        H817   1.084       .  S
C807        C808   1.398       .  A
C807        H818   1.084       .  S
C808        C809   1.403       .  A
C808        H819   1.084       .  S
C809        C810   1.423       .  A
C809        C814   1.418       .  A
C810        C811   1.414       .  A
C811        C812   1.394       .  A
C811        H820   1.077       .  S
C812        C813   1.400       .  A
C812        H821   1.084   1_556  S
C813        C814   1.406       .  A
C814        H822   1.084       .  S
C823        C824   1.403       .  A
C823        C828   1.404       .  A
C824        C825   1.395       .  A
C824        H837   1.083       .  S
C825        C826   1.413       .  A
C825        H838   1.077       .  S
C826        C832   1.431       .  A
C826        C827   1.423       .  A
C827        C829   1.400       .  A
C827        C828   1.408       .  A
C828        H839   1.084       .  S
C829        C830   1.391       .  A
C829        H840   1.084       .  S
C830        C831   1.400       .  A
C830        H841   1.084   1_556  S
C831        C832   1.422       .  A
C831        C836   1.406   1_556  A
C832        C833   1.416       .  A
C833        C834   1.397       .  A
C833        H842   1.077       .  S
C834        C835   1.401       .  A
C834        H843   1.083       .  S
C835        C836   1.404   1_556  A
C836        H844   1.084       .  S
C845        C846   1.402       .  A
C845        C850   1.403       .  A
C846        C847   1.396       .  A
C846        H859   1.083       .  S
C847        C848   1.414       .  A
C847        H860   1.077       .  S
C848        C854   1.430       .  A
C848        C849   1.422       .  A
C849        C851   1.399       .  A
C849        C850   1.405       .  A
C850        H861   1.084       .  S
C851        C852   1.390       .  A
C851        H862   1.084       .  S
C852        C853   1.399       .  A
C852        H863   1.084   1_455  S
C853        C854   1.422       .  A
C853        C858   1.404       .  A
C854        C855   1.415   1_556  A
C855        C856   1.396       .  A
C855        H864   1.077       .  S
C856        C857   1.400       .  A
C856        H865   1.083       .  S
C857        C858   1.402   1_554  A
C858        H866   1.084   1_455  S
C867        C868   1.404       .  A
C867        C872   1.404       .  A
C868        C869   1.409       .  A
C868        H881   1.083       .  S
C869        C870   1.420       .  A
C869        H882   1.078       .  S
C870        C876   1.437       .  A
C870        C871   1.421       .  A
C871        C873   1.398       .  A
C871        C872   1.398       .  A
C872        H883   1.084       .  S
C873        C874   1.383       .  A
C873        H884   1.084       .  S
C874        C875   1.397       .  A
C874        H885   1.084       .  S
C875        C876   1.423       .  A
C875        C880   1.399       .  A
C876        C877   1.418       .  A
C877        C878   1.407       .  A
C877        H886   1.078       .  S
C878        C879   1.404       .  A
C878        H887   1.083       .  S
C879        C880   1.401       .  A
C880        H888   1.085       .  S
C889        C890   1.404       .  A
C889        C894   1.404       .  A
C890        C891   1.399       .  A
C890        H903   1.083       .  S
C891        C892   1.413       .  A
C891        H904   1.078       .  S
C892        C898   1.435       .  A
C892        C893   1.424       .  A
C893        C895   1.399       .  A
C893        C894   1.409       .  A
C894        H905   1.084       .  S
C895        C896   1.390       .  A
C895        H906   1.084       .  S
C896        C897   1.400       .  A
C896        H907   1.084       .  S
C897        C898   1.420       .  A
C897        C902   1.404       .  A
C898        C899   1.418       .  A
C899        C900   1.403   1_455  A
C899        H908   1.078   1_455  S
C900        C901   1.402       .  A
C900        H909   1.083       .  S
C901        C902   1.406   1_655  A
C902        H910   1.084       .  S
C911        C912   1.403       .  A
C911        C916   1.405       .  A
C912        C913   1.409       .  A
C912        H925   1.083       .  S
C913        C914   1.420       .  A
C913        H926   1.078       .  S
C914        C920   1.437       .  A
C914        C915   1.421       .  A
C915        C917   1.399       .  A
C915        C916   1.400       .  A
C916        H927   1.084       .  S
C917        C918   1.385       .  A
C917        H928   1.084       .  S
C918        C919   1.397       .  A
C918        H929   1.084       .  S
C919        C920   1.423       .  A
C919        C924   1.401       .  A
C920        C921   1.418       .  A
C921        C922   1.406       .  A
C921        H930   1.078       .  S
C922        C923   1.403       .  A
C922        H931   1.083       .  S
C923        C924   1.401       .  A
C924        H932   1.085   1_455  S
C933        C934   1.404       .  A
C933        C938   1.402       .  A
C934        C935   1.397       .  A
C934        H947   1.083       .  S
C935        C936   1.413       .  A
C935        H948   1.077       .  S
C936        C942   1.433       .  A
C936        C937   1.424       .  A
C937        C939   1.399       .  A
C937        C938   1.409       .  A
C938        H949   1.084       .  S
C939        C940   1.390       .  A
C939        H950   1.084       .  S
C940        C941   1.400       .  A
C940        H951   1.084       .  S
C941        C942   1.421       .  A
C941        C946   1.405       .  A
C942        C943   1.417       .  A
C943        C944   1.400   1_655  A
C943        H952   1.077   1_655  S
C944        C945   1.402       .  A
C944        H953   1.083       .  S
C945        C946   1.406   1_455  A
C946        H954   1.084       .  S
C955        C956   1.402       .  A
C955        C960   1.402   1_565  A
C956        C957   1.396       .  A
C956        H969   1.083   1_556  S
C957        C958   1.414       .  A
C957        H970   1.077       .  S
C958        C964   1.432       .  A
C958        C959   1.423       .  A
C959        C961   1.400       .  A
C959        C960   1.408   1_565  A
C960        H971   1.084       .  S
C961        C962   1.391       .  A
C961        H972   1.084   1_565  S
C962        C963   1.400       .  A
C962        H973   1.084       .  S
C963        C964   1.422       .  A
C963        C968   1.407       .  A
C964        C965   1.416       .  A
C965        C966   1.398       .  A
C965        H974   1.077       .  S
C966        C967   1.401       .  A
C966        H975   1.083       .  S
C967        C968   1.403       .  A
C968        H976   1.084       .  S
C977        C978   1.403       .  A
C977        C982   1.401       .  A
C978        C979   1.395       .  A
C978        H991   1.083       .  S
C979        C980   1.413       .  A
C979        H992   1.077       .  S
C980        C986   1.429       .  A
C980        C981   1.423       .  A
C981        C983   1.399       .  A
C981        C982   1.404       .  A
C982        H993   1.084       .  S
C983        C984   1.388       .  A
C983        H994   1.084       .  S
C984        C985   1.399       .  A
C984        H995   1.084   1_655  S
C985        C986   1.421       .  A
C985        C990   1.402       .  A
C986        C987   1.415   1_556  A
C987        C988   1.397       .  A
C987        H996   1.077       .  S
C988        C989   1.401       .  A
C988        H997   1.083       .  S
C989        C990   1.402   1_554  A
C990        H998   1.084   1_655  S
C999       C1000   1.402       .  A
C999       C1004   1.404       .  A
C1000      C1001   1.390       .  A
C1000      H1013   1.084       .  S
C1001      C1002   1.411       .  A
C1001      H1014   1.076       .  S
C1002      C1008   1.431       .  A
C1002      C1003   1.425       .  A
C1003      C1005   1.401       .  A
C1003      C1004   1.417       .  A
C1004      H1015   1.084       .  S
C1005      C1006   1.396       .  A
C1005      H1016   1.084       .  S
C1006      C1007   1.402       .  A
C1006      H1017   1.084       .  S
C1007      C1008   1.422       .  A
C1007      C1012   1.412       .  A
C1008      C1009   1.416       .  A
C1009      C1010   1.393       .  A
C1009      H1018   1.076       .  S
C1010      C1011   1.396       .  A
C1010      H1019   1.084       .  S
C1011      C1012   1.403       .  A
C1012      H1020   1.084       .  S
C1021      C1022   1.402       .  A
C1021      C1026   1.399       .  A
C1022      C1023   1.406       .  A
C1022      H1035   1.083       .  S
C1023      C1024   1.418       .  A
C1023      H1036   1.078       .  S
C1024      C1030   1.438       .  A
C1024      C1025   1.424       .  A
C1025      C1027   1.397       .  A
C1025      C1026   1.403       .  A
C1026      H1037   1.085       .  S
C1027      C1028   1.386       .  A
C1027      H1038   1.084       .  S
C1028      C1029   1.399       .  A
C1028      H1039   1.084       .  S
C1029      C1030   1.421       .  A
C1029      C1034   1.401       .  A
C1030      C1031   1.420       .  A
C1031      C1032   1.409       .  A
C1031      H1040   1.078       .  S
C1032      C1033   1.403       .  A
C1032      H1041   1.083       .  S
C1033      C1034   1.405       .  A
C1034      H1042   1.085       .  S
C1043      C1044   1.401       .  A
C1043      C1048   1.405       .  A
C1044      C1045   1.398       .  A
C1044      H1057   1.083       .  S
C1045      C1046   1.416       .  A
C1045      H1058   1.077       .  S
C1046      C1052   1.432       .  A
C1046      C1047   1.421       .  A
C1047      C1049   1.401       .  A
C1047      C1048   1.406       .  A
C1048      H1059   1.084       .  S
C1049      C1050   1.391       .  A
C1049      H1060   1.084       .  S
C1050      C1051   1.400       .  A
C1050      H1061   1.084       .  S
C1051      C1052   1.424       .  A
C1051      C1056   1.409       .  A
C1052      C1053   1.413       .  A
C1053      C1054   1.395       .  A
C1053      H1062   1.077       .  S
C1054      C1055   1.401       .  A
C1054      H1063   1.083       .  S
C1055      C1056   1.402       .  A
C1056      H1064   1.084       .  S
C1065      C1066   1.398       .  A
C1065      C1070   1.399       .  A
C1066      C1067   1.398       .  A
C1066      H1079   1.084       .  S
C1067      C1068   1.415       .  A
C1067      H1080   1.077       .  S
C1068      C1074   1.433       .  A
C1068      C1069   1.425       .  A
C1069      C1071   1.400       .  A
C1069      C1070   1.410       .  A
C1070      H1081   1.085       .  S
C1071      C1072   1.392       .  A
C1071      H1082   1.084       .  S
C1072      C1073   1.400       .  A
C1072      H1083   1.084   1_655  S
C1073      C1074   1.422       .  A
C1073      C1078   1.407       .  A
C1074      C1075   1.417       .  A
C1075      C1076   1.399       .  A
C1075      H1084   1.077       .  S
C1076      C1077   1.400       .  A
C1076      H1085   1.083       .  S
C1077      C1078   1.403       .  A
C1078      H1086   1.085   1_655  S
C1087      C1088   1.399       .  A
C1087      C1092   1.397       .  A
C1088      C1089   1.403       .  A
C1088      H1101   1.083   1_655  S
C1089      C1090   1.417       .  A
C1089      H1102   1.078       .  S
C1090      C1096   1.433       .  A
C1090      C1091   1.424       .  A
C1091      C1093   1.397       .  A
C1091      C1092   1.400       .  A
C1092      H1103   1.085       .  S
C1093      C1094   1.385       .  A
C1093      H1104   1.084       .  S
C1094      C1095   1.398       .  A
C1094      H1105   1.084       .  S
C1095      C1096   1.421       .  A
C1095      C1100   1.397       .  A
C1096      C1097   1.419       .  A
C1097      C1098   1.405       .  A
C1097      H1106   1.078       .  S
C1098      C1099   1.401       .  A
C1098      H1107   1.083       .  S
C1099      C1100   1.403       .  A
C1100      H1108   1.085       .  S
C1109      C1110   1.402       .  A
C1109      C1114   1.404       .  A
C1110      C1111   1.397       .  A
C1110      H1123   1.083       .  S
C1111      C1112   1.415       .  A
C1111      H1124   1.077       .  S
C1112      C1118   1.432       .  A
C1112      C1113   1.422       .  A
C1113      C1115   1.400       .  A
C1113      C1114   1.407       .  A
C1114      H1125   1.084       .  S
C1115      C1116   1.391       .  A
C1115      H1126   1.084       .  S
C1116      C1117   1.399       .  A
C1116      H1127   1.084       .  S
C1117      C1118   1.423       .  A
C1117      C1122   1.407       .  A
C1118      C1119   1.415       .  A
C1119      C1120   1.397       .  A
C1119      H1128   1.077       .  S
C1120      C1121   1.402       .  A
C1120      H1129   1.083       .  S
C1121      C1122   1.402       .  A
C1122      H1130   1.084       .  S
C1131      C1132   1.402       .  A
C1131      C1136   1.404       .  A
C1132      C1133   1.405       .  A
C1132      H1145   1.083       .  S
C1133      C1134   1.418       .  A
C1133      H1146   1.078       .  S
C1134      C1140   1.435       .  A
C1134      C1135   1.422       .  A
C1135      C1137   1.399       .  A
C1135      C1136   1.401       .  A
C1136      H1147   1.084       .  S
C1137      C1138   1.386       .  A
C1137      H1148   1.084       .  S
C1138      C1139   1.398       .  A
C1138      H1149   1.084       .  S
C1139      C1140   1.423       .  A
C1139      C1144   1.401       .  A
C1140      C1141   1.418       .  A
C1141      C1142   1.405   1_545  A
C1141      H1150   1.078       .  S
C1142      C1143   1.401   1_565  A
C1142      H1151   1.083       .  S
C1143      C1144   1.402       .  A
C1144      H1152   1.085       .  S
C1153      C1154   1.405       .  A
C1153      C1158   1.407       .  A
C1154      C1155   1.394       .  A
C1154      H1167   1.082       .  S
C1155      C1156   1.411       .  A
C1155      H1168   1.078       .  S
C1156      C1162   1.431       .  A
C1156      C1157   1.422       .  A
C1157      C1159   1.401       .  A
C1157      C1158   1.413       .  A
C1158      H1169   1.083       .  S
C1159      C1160   1.395       .  A
C1159      H1170   1.084       .  S
C1160      C1161   1.401       .  A
C1160      H1171   1.084       .  S
C1161      C1162   1.422       .  A
C1161      C1166   1.411       .  A
C1162      C1163   1.414       .  A
C1163      C1164   1.396       .  A
C1163      H1172   1.078       .  S
C1164      C1165   1.401       .  A
C1164      H1173   1.084       .  S
C1165      C1166   1.403       .  A
C1166      H1174   1.084       .  S
C1175      C1176   1.399       .  A
C1175      C1180   1.401       .  A
C1176      C1177   1.402       .  A
C1176      H1189   1.083       .  S
C1177      C1178   1.418       .  A
C1177      H1190   1.078       .  S
C1178      C1184   1.435       .  A
C1178      C1179   1.422       .  A
C1179      C1181   1.400       .  A
C1179      C1180   1.407       .  A
C1180      H1191   1.085       .  S
C1181      C1182   1.391       .  A
C1181      H1192   1.084       .  S
C1182      C1183   1.399       .  A
C1182      H1193   1.084       .  S
C1183      C1184   1.426       .  A
C1183      C1188   1.411       .  A
C1184      C1185   1.414       .  A
C1185      C1186   1.399       .  A
C1185      H1194   1.078       .  S
C1186      C1187   1.401       .  A
C1186      H1195   1.084       .  S
C1187      C1188   1.399       .  A
C1188      H1196   1.084       .  S
C1197      C1198   1.404       .  A
C1197      C1202   1.403       .  A
C1198      C1199   1.407       .  A
C1198      H1211   1.083       .  S
C1199      C1200   1.418       .  A
C1199      H1212   1.078       .  S
C1200      C1206   1.437       .  A
C1200      C1201   1.422       .  A
C1201      C1203   1.398       .  A
C1201      C1202   1.401       .  A
C1202      H1213   1.084       .  S
C1203      C1204   1.385       .  A
C1203      H1214   1.084       .  S
C1204      C1205   1.397       .  A
C1204      H1215   1.084       .  S
C1205      C1206   1.423       .  A
C1205      C1210   1.401       .  A
C1206      C1207   1.419       .  A
C1207      C1208   1.407       .  A
C1207      H1216   1.078       .  S
C1208      C1209   1.402       .  A
C1208      H1217   1.083       .  S
C1209      C1210   1.400       .  A
C1210      H1218   1.085       .  S
C1219      C1220   1.400       .  A
C1219      C1224   1.405       .  A
C1220      C1221   1.393       .  A
C1220      H1233   1.083       .  S
C1221      C1222   1.414       .  A
C1221      H1234   1.077       .  S
C1222      C1228   1.428       .  A
C1222      C1223   1.422       .  A
C1223      C1225   1.401       .  A
C1223      C1224   1.408       .  A
C1224      H1235   1.084       .  S
C1225      C1226   1.393       .  A
C1225      H1236   1.084       .  S
C1226      C1227   1.400       .  A
C1226      H1237   1.084       .  S
C1227      C1228   1.424       .  A
C1227      C1232   1.410       .  A
C1228      C1229   1.413       .  A
C1229      C1230   1.390       .  A
C1229      H1238   1.077       .  S
C1230      C1231   1.398       .  A
C1230      H1239   1.084       .  S
C1231      C1232   1.401       .  A
C1232      H1240   1.084       .  S
C1241      C1242   1.404   1_565  A
C1241      C1246   1.405       .  A
C1242      C1243   1.405   1_545  A
C1242      H1255   1.083       .  S
C1243      C1244   1.417       .  A
C1243      H1256   1.078       .  S
C1244      C1250   1.435       .  A
C1244      C1245   1.421       .  A
C1245      C1247   1.399       .  A
C1245      C1246   1.403       .  A
C1246      H1257   1.084       .  S
C1247      C1248   1.388       .  A
C1247      H1258   1.084       .  S
C1248      C1249   1.398       .  A
C1248      H1259   1.084       .  S
C1249      C1250   1.424       .  A
C1249      C1254   1.405       .  A
C1250      C1251   1.417       .  A
C1251      C1252   1.403       .  A
C1251      H1260   1.078       .  S
C1252      C1253   1.400       .  A
C1252      H1261   1.083       .  S
C1253      C1254   1.399       .  A
C1254      H1262   1.085       .  S
C1263      C1264   1.403       .  A
C1263      C1268   1.402       .  A
C1264      C1265   1.399       .  A
C1264      H1277   1.083       .  S
C1265      C1266   1.415       .  A
C1265      H1278   1.078       .  S
C1266      C1272   1.433       .  A
C1266      C1267   1.423       .  A
C1267      C1269   1.399       .  A
C1267      C1268   1.406       .  A
C1268      H1279   1.084       .  S
C1269      C1270   1.389       .  A
C1269      H1280   1.084       .  S
C1270      C1271   1.399       .  A
C1270      H1281   1.084       .  S
C1271      C1272   1.422       .  A
C1271      C1276   1.404       .  A
C1272      C1273   1.416       .  A
C1273      C1274   1.400       .  A
C1273      H1282   1.077       .  S
C1274      C1275   1.402       .  A
C1274      H1283   1.083       .  S
C1275      C1276   1.403       .  A
C1276      H1284   1.084       .  S
C1285      C1286   1.403       .  A
C1285      C1290   1.405       .  A
C1286      C1287   1.402       .  A
C1286      H1299   1.083       .  S
C1287      C1288   1.416       .  A
C1287      H1300   1.077       .  S
C1288      C1294   1.435       .  A
C1288      C1289   1.422       .  A
C1289      C1291   1.400       .  A
C1289      C1290   1.406       .  A
C1290      H1301   1.084       .  S
C1291      C1292   1.390       .  A
C1291      H1302   1.084       .  S
C1292      C1293   1.399       .  A
C1292      H1303   1.084       .  S
C1293      C1294   1.423       .  A
C1293      C1298   1.408       .  A
C1294      C1295   1.415       .  A
C1295      C1296   1.401       .  A
C1295      H1304   1.077       .  S
C1296      C1297   1.404       .  A
C1296      H1305   1.083       .  S
C1297      C1298   1.403       .  A
C1298      H1306   1.084       .  S
C1307      C1308   1.403       .  A
C1307      C1312   1.403       .  A
C1308      C1309   1.406       .  A
C1308      H1321   1.083       .  S
C1309      C1310   1.418       .  A
C1309      H1322   1.078       .  S
C1310      C1316   1.435       .  A
C1310      C1311   1.422       .  A
C1311      C1313   1.398       .  A
C1311      C1312   1.400       .  A
C1312      H1323   1.085       .  S
C1313      C1314   1.385       .  A
C1313      H1324   1.084       .  S
C1314      C1315   1.397       .  A
C1314      H1325   1.084       .  S
C1315      C1316   1.423       .  A
C1315      C1320   1.400       .  A
C1316      C1317   1.419       .  A
C1317      C1318   1.405       .  A
C1317      H1326   1.078       .  S
C1318      C1319   1.401       .  A
C1318      H1327   1.083       .  S
C1319      C1320   1.398       .  A
C1320      H1328   1.085       .  S
C1329      C1330   1.402       .  A
C1329      C1334   1.405       .  A
C1330      C1331   1.398       .  A
C1330      H1343   1.083       .  S
C1331      C1332   1.416       .  A
C1331      H1344   1.077       .  S
C1332      C1338   1.433       .  A
C1332      C1333   1.422       .  A
C1333      C1335   1.400       .  A
C1333      C1334   1.408       .  A
C1334      H1345   1.084       .  S
C1335      C1336   1.392       .  A
C1335      H1346   1.084       .  S
C1336      C1337   1.400       .  A
C1336      H1347   1.084       .  S
C1337      C1338   1.424       .  A
C1337      C1342   1.410       .  A
C1338      C1339   1.414       .  A
C1339      C1340   1.396       .  A
C1339      H1348   1.077       .  S
C1340      C1341   1.402       .  A
C1340      H1349   1.083   1_554  S
C1341      C1342   1.402       .  A
C1342      H1350   1.084       .  S
C1351      C1352   1.403       .  A
C1351      C1356   1.403       .  A
C1352      C1353   1.407       .  A
C1352      H1365   1.083       .  S
C1353      C1354   1.419       .  A
C1353      H1366   1.078       .  S
C1354      C1360   1.436       .  A
C1354      C1355   1.422       .  A
C1355      C1357   1.398       .  A
C1355      C1356   1.399       .  A
C1356      H1367   1.084       .  S
C1357      C1358   1.384       .  A
C1357      H1368   1.084       .  S
C1358      C1359   1.397       .  A
C1358      H1369   1.084       .  S
C1359      C1360   1.423       .  A
C1359      C1364   1.400       .  A
C1360      C1361   1.419       .  A
C1361      C1362   1.406       .  A
C1361      H1370   1.078       .  S
C1362      C1363   1.402       .  A
C1362      H1371   1.083       .  S
C1363      C1364   1.399       .  A
C1364      H1372   1.085       .  S
C1373      C1374   1.400       .  A
C1373      C1378   1.399       .  A
C1374      C1375   1.403       .  A
C1374      H1387   1.083       .  S
C1375      C1376   1.416       .  A
C1375      H1388   1.078       .  S
C1376      C1382   1.436       .  A
C1376      C1377   1.424       .  A
C1377      C1379   1.399       .  A
C1377      C1378   1.408       .  A
C1378      H1389   1.085       .  S
C1379      C1380   1.390       .  A
C1379      H1390   1.084       .  S
C1380      C1381   1.400       .  A
C1380      H1391   1.084       .  S
C1381      C1382   1.420       .  A
C1381      C1386   1.405       .  A
C1382      C1383   1.417       .  A
C1383      C1384   1.405       .  A
C1383      H1392   1.078       .  S
C1384      C1385   1.405       .  A
C1384      H1393   1.082       .  S
C1385      C1386   1.408       .  A
C1386      H1394   1.083       .  S
C1395      C1396   1.398       .  A
C1395      C1400   1.399       .  A
C1396      C1397   1.399       .  A
C1396      H1409   1.084       .  S
C1397      C1398   1.416       .  A
C1397      H1410   1.078       .  S
C1398      C1404   1.430       .  A
C1398      C1399   1.423       .  A
C1399      C1401   1.399       .  A
C1399      C1400   1.405       .  A
C1400      H1411   1.085       .  S
C1401      C1402   1.390       .  A
C1401      H1412   1.084       .  S
C1402      C1403   1.400       .  A
C1402      H1413   1.084       .  S
C1403      C1404   1.421       .  A
C1403      C1408   1.404       .  A
C1404      C1405   1.415       .  A
C1405      C1406   1.398   1_554  A
C1405      H1414   1.078   1_554  S
C1406      C1407   1.403       .  A
C1406      H1415   1.083       .  S
C1407      C1408   1.405   1_556  A
C1408      H1416   1.084       .  S
C1417      C1418   1.402       .  A
C1417      C1422   1.405   1_556  A
C1418      C1419   1.397   1_556  A
C1418      H1431   1.083       .  S
C1419      C1420   1.415       .  A
C1419      H1432   1.077   1_554  S
C1420      C1426   1.431       .  A
C1420      C1421   1.421       .  A
C1421      C1423   1.400       .  A
C1421      C1422   1.405       .  A
C1422      H1433   1.084       .  S
C1423      C1424   1.391       .  A
C1423      H1434   1.084       .  S
C1424      C1425   1.400       .  A
C1424      H1435   1.084       .  S
C1425      C1426   1.422       .  A
C1425      C1430   1.408       .  A
C1426      C1427   1.413       .  A
C1427      C1428   1.396       .  A
C1427      H1436   1.077       .  S
C1428      C1429   1.403       .  A
C1428      H1437   1.083       .  S
C1429      C1430   1.404       .  A
C1430      H1438   1.084       .  S
C1439      C1440   1.400       .  A
C1439      C1444   1.397       .  A
C1440      C1441   1.401       .  A
C1440      H1453   1.083       .  S
C1441      C1442   1.417       .  A
C1441      H1454   1.078       .  S
C1442      C1448   1.431       .  A
C1442      C1443   1.423       .  A
C1443      C1445   1.398       .  A
C1443      C1444   1.401       .  A
C1444      H1455   1.085       .  S
C1445      C1446   1.387       .  A
C1445      H1456   1.084       .  S
C1446      C1447   1.399       .  A
C1446      H1457   1.084       .  S
C1447      C1448   1.421       .  A
C1447      C1452   1.400       .  A
C1448      C1449   1.415       .  A
C1449      C1450   1.401       .  A
C1449      H1458   1.078       .  S
C1450      C1451   1.404       .  A
C1450      H1459   1.082       .  S
C1451      C1452   1.404       .  A
C1452      H1460   1.084       .  S
C1461      C1462   1.399       .  A
C1461      C1466   1.398       .  A
C1462      C1463   1.398       .  A
C1462      H1475   1.084       .  S
C1463      C1464   1.415       .  A
C1463      H1476   1.077       .  S
C1464      C1470   1.433       .  A
C1464      C1465   1.425       .  A
C1465      C1467   1.399       .  A
C1465      C1466   1.407       .  A
C1466      H1477   1.085       .  S
C1467      C1468   1.389       .  A
C1467      H1478   1.084       .  S
C1468      C1469   1.400       .  A
C1468      H1479   1.084       .  S
C1469      C1470   1.421       .  A
C1469      C1474   1.404       .  A
C1470      C1471   1.419       .  A
C1471      C1472   1.403       .  A
C1471      H1480   1.077       .  S
C1472      C1473   1.398       .  A
C1472      H1481   1.083       .  S
C1473      C1474   1.401       .  A
C1474      H1482   1.085       .  S
C1483      C1484   1.402       .  A
C1483      C1488   1.401       .  A
C1484      C1485   1.402       .  A
C1484      H1497   1.083       .  S
C1485      C1486   1.417       .  A
C1485      H1498   1.078       .  S
C1486      C1492   1.431       .  A
C1486      C1487   1.422       .  A
C1487      C1489   1.398       .  A
C1487      C1488   1.398       .  A
C1488      H1499   1.085       .  S
C1489      C1490   1.384       .  A
C1489      H1500   1.084       .  S
C1490      C1491   1.397       .  A
C1490      H1501   1.084       .  S
C1491      C1492   1.423       .  A
C1491      C1496   1.398       .  A
C1492      C1493   1.418       .  A
C1493      C1494   1.402       .  A
C1493      H1502   1.078       .  S
C1494      C1495   1.399       .  A
C1494      H1503   1.083       .  S
C1495      C1496   1.397       .  A
C1496      H1504   1.085       .  S
C1505      C1506   1.396       .  A
C1505      C1510   1.400       .  A
C1506      C1507   1.392       .  A
C1506      H1519   1.084       .  S
C1507      C1508   1.414       .  A
C1507      H1520   1.077       .  S
C1508      C1514   1.429       .  A
C1508      C1509   1.424       .  A
C1509      C1511   1.400       .  A
C1509      C1510   1.411       .  A
C1510      H1521   1.084       .  S
C1511      C1512   1.394       .  A
C1511      H1522   1.084       .  S
C1512      C1513   1.401       .  A
C1512      H1523   1.084       .  S
C1513      C1514   1.422       .  A
C1513      C1518   1.409       .  A
C1514      C1515   1.414       .  A
C1515      C1516   1.393       .  A
C1515      H1524   1.077       .  S
C1516      C1517   1.400       .  A
C1516      H1525   1.084       .  S
C1517      C1518   1.403       .  A
C1518      H1526   1.084       .  S
C1527      C1528   1.400       .  A
C1527      C1532   1.405       .  A
C1528      C1529   1.398       .  A
C1528      H1541   1.083       .  S
C1529      C1530   1.416       .  A
C1529      H1542   1.077       .  S
C1530      C1536   1.432       .  A
C1530      C1531   1.421       .  A
C1531      C1533   1.401       .  A
C1531      C1532   1.408       .  A
C1532      H1543   1.084       .  S
C1533      C1534   1.392       .  A
C1533      H1544   1.084       .  S
C1534      C1535   1.400       .  A
C1534      H1545   1.084       .  S
C1535      C1536   1.424       .  A
C1535      C1540   1.411       .  A
C1536      C1537   1.413       .  A
C1537      C1538   1.394       .  A
C1537      H1546   1.077       .  S
C1538      C1539   1.402       .  A
C1538      H1547   1.084       .  S
C1539      C1540   1.402       .  A
C1540      H1548   1.084       .  S
C1549      C1550   1.402       .  A
C1549      C1554   1.402       .  A
C1550      C1551   1.400       .  A
C1550      H1563   1.083       .  S
C1551      C1552   1.416       .  A
C1551      H1564   1.077       .  S
C1552      C1558   1.434       .  A
C1552      C1553   1.423       .  A
C1553      C1555   1.399       .  A
C1553      C1554   1.406       .  A
C1554      H1565   1.084       .  S
C1555      C1556   1.390       .  A
C1555      H1566   1.084       .  S
C1556      C1557   1.399       .  A
C1556      H1567   1.084       .  S
C1557      C1558   1.423       .  A
C1557      C1562   1.407       .  A
C1558      C1559   1.415       .  A
C1559      C1560   1.400       .  A
C1559      H1568   1.077       .  S
C1560      C1561   1.403       .  A
C1560      H1569   1.083       .  S
C1561      C1562   1.403       .  A
C1562      H1570   1.084       .  S
C1571      C1572   1.403       .  A
C1571      C1576   1.407       .  A
C1572      C1573   1.390       .  A
C1572      H1585   1.083       .  S
C1573      C1574   1.411       .  A
C1573      H1586   1.076       .  S
C1574      C1580   1.430       .  A
C1574      C1575   1.423       .  A
C1575      C1577   1.402       .  A
C1575      C1576   1.416       .  A
C1576      H1587   1.084       .  S
C1577      C1578   1.397       .  A
C1577      H1588   1.084       .  S
C1578      C1579   1.402       .  A
C1578      H1589   1.084       .  S
C1579      C1580   1.422       .  A
C1579      C1584   1.414       .  A
C1580      C1581   1.414       .  A
C1581      C1582   1.391       .  A
C1581      H1590   1.076       .  S
C1582      C1583   1.397       .  A
C1582      H1591   1.084       .  S
C1583      C1584   1.404       .  A
C1584      H1592   1.084       .  S
C1593      C1594   1.399       .  A
C1593      C1598   1.403       .  A
C1594      C1595   1.404       .  A
C1594      H1607   1.083       .  S
C1595      C1596   1.420       .  A
C1595      H1608   1.078       .  S
C1596      C1602   1.433       .  A
C1596      C1597   1.420       .  A
C1597      C1599   1.399       .  A
C1597      C1598   1.399       .  A
C1598      H1609   1.085       .  S
C1599      C1600   1.387       .  A
C1599      H1610   1.084       .  S
C1600      C1601   1.398       .  A
C1600      H1611   1.084       .  S
C1601      C1602   1.425       .  A
C1601      C1606   1.404       .  A
C1602      C1603   1.416       .  A
C1603      C1604   1.400       .  A
C1603      H1612   1.077       .  S
C1604      C1605   1.398       .  A
C1604      H1613   1.083       .  S
C1605      C1606   1.396       .  A
C1606      H1614   1.085       .  S
C1615      C1616   1.406       .  A
C1615      C1620   1.408       .  A
C1616      C1617   1.391       .  A
C1616      H1629   1.082       .  S
C1617      C1618   1.409       .  A
C1617      H1630   1.078       .  S
C1618      C1624   1.427       .  A
C1618      C1619   1.421       .  A
C1619      C1621   1.401       .  A
C1619      C1620   1.412       .  A
C1620      H1631   1.083       .  S
C1621      C1622   1.395       .  A
C1621      H1632   1.084       .  S
C1622      C1623   1.402       .  A
C1622      H1633   1.084       .  S
C1623      C1624   1.421       .  A
C1623      C1628   1.410       .  A
C1624      C1625   1.414       .  A
C1625      C1626   1.394       .  A
C1625      H1634   1.078       .  S
C1626      C1627   1.399       .  A
C1626      H1635   1.084       .  S
C1627      C1628   1.404       .  A
C1628      H1636   1.084       .  S
C1637      C1638   1.400       .  A
C1637      C1642   1.404       .  A
C1638      C1639   1.396       .  A
C1638      H1651   1.083       .  S
C1639      C1640   1.415       .  A
C1639      H1652   1.077       .  S
C1640      C1646   1.430       .  A
C1640      C1641   1.422       .  A
C1641      C1643   1.400       .  A
C1641      C1642   1.406       .  A
C1642      H1653   1.084       .  S
C1643      C1644   1.391       .  A
C1643      H1654   1.084       .  S
C1644      C1645   1.400       .  A
C1644      H1655   1.084       .  S
C1645      C1646   1.424       .  A
C1645      C1650   1.408       .  A
C1646      C1647   1.414       .  A
C1647      C1648   1.395       .  A
C1647      H1656   1.077       .  S
C1648      C1649   1.400       .  A
C1648      H1657   1.084       .  S
C1649      C1650   1.402       .  A
C1650      H1658   1.084       .  S
C1659      C1660   1.402       .  A
C1659      C1664   1.402       .  A
C1660      C1661   1.401       .  A
C1660      H1673   1.083       .  S
C1661      C1662   1.417       .  A
C1661      H1674   1.078       .  S
C1662      C1668   1.432       .  A
C1662      C1663   1.422       .  A
C1663      C1665   1.399       .  A
C1663      C1664   1.402       .  A
C1664      H1675   1.084       .  S
C1665      C1666   1.388       .  A
C1665      H1676   1.084       .  S
C1666      C1667   1.398       .  A
C1666      H1677   1.084       .  S
C1667      C1668   1.423       .  A
C1667      C1672   1.404       .  A
C1668      C1669   1.415       .  A
C1669      C1670   1.399       .  A
C1669      H1678   1.078       .  S
C1670      C1671   1.404       .  A
C1670      H1679   1.083       .  S
C1671      C1672   1.401       .  A
C1672      H1680   1.084       .  S
C1681      C1682   1.403       .  A
C1681      C1686   1.403       .  A
C1682      C1683   1.406       .  A
C1682      H1695   1.083       .  S
C1683      C1684   1.418       .  A
C1683      H1696   1.078       .  S
C1684      C1690   1.434       .  A
C1684      C1685   1.421       .  A
C1685      C1687   1.398       .  A
C1685      C1686   1.398       .  A
C1686      H1697   1.084       .  S
C1687      C1688   1.384       .  A
C1687      H1698   1.084       .  S
C1688      C1689   1.397       .  A
C1688      H1699   1.084       .  S
C1689      C1690   1.423       .  A
C1689      C1694   1.399       .  A
C1690      C1691   1.417       .  A
C1691      C1692   1.404       .  A
C1691      H1700   1.078       .  S
C1692      C1693   1.402       .  A
C1692      H1701   1.083       .  S
C1693      C1694   1.399       .  A
C1694      H1702   1.085       .  S
C1703      C1704   1.397       .  A
C1703      C1708   1.402       .  A
C1704      C1705   1.392       .  A
C1704      H1717   1.084       .  S
C1705      C1706   1.415       .  A
C1705      H1718   1.077       .  S
C1706      C1712   1.429       .  A
C1706      C1707   1.422       .  A
C1707      C1709   1.401       .  A
C1707      C1708   1.411       .  A
C1708      H1719   1.084   1_545  S
C1709      C1710   1.395       .  A
C1709      H1720   1.084       .  S
C1710      C1711   1.401       .  A
C1710      H1721   1.084       .  S
C1711      C1712   1.423       .  A
C1711      C1716   1.413       .  A
C1712      C1713   1.411       .  A
C1713      C1714   1.390       .  A
C1713      H1722   1.077       .  S
C1714      C1715   1.403       .  A
C1714      H1723   1.083       .  S
C1715      C1716   1.405       .  A
C1716      H1724   1.084       .  S
C1725      C1726   1.402       .  A
C1725      C1730   1.404       .  A
C1726      C1727   1.405       .  A
C1726      H1739   1.083       .  S
C1727      C1728   1.418       .  A
C1727      H1740   1.078       .  S
C1728      C1734   1.434       .  A
C1728      C1729   1.421       .  A
C1729      C1731   1.398       .  A
C1729      C1730   1.399       .  A
C1730      H1741   1.084       .  S
C1731      C1732   1.385       .  A
C1731      H1742   1.084       .  S
C1732      C1733   1.398       .  A
C1732      H1743   1.084       .  S
C1733      C1734   1.423       .  A
C1733      C1738   1.401       .  A
C1734      C1735   1.417       .  A
C1735      C1736   1.403       .  A
C1735      H1744   1.078       .  S
C1736      C1737   1.403       .  A
C1736      H1745   1.083       .  S
C1737      C1738   1.402       .  A
C1738      H1746   1.084       .  S
C1747      C1748   1.400       .  A
C1747      C1752   1.403       .  A
C1748      C1749   1.395       .  A
C1748      H1761   1.083       .  S
C1749      C1750   1.415       .  A
C1749      H1762   1.077       .  S
C1750      C1756   1.429       .  A
C1750      C1751   1.422       .  A
C1751      C1753   1.400       .  A
C1751      C1752   1.406       .  A
C1752      H1763   1.084       .  S
C1753      C1754   1.391       .  A
C1753      H1764   1.084       .  S
C1754      C1755   1.400       .  A
C1754      H1765   1.084       .  S
C1755      C1756   1.423       .  A
C1755      C1760   1.407       .  A
C1756      C1757   1.414       .  A
C1757      C1758   1.394       .  A
C1757      H1766   1.077       .  S
C1758      C1759   1.399       .  A
C1758      H1767   1.084       .  S
C1759      C1760   1.401       .  A
C1760      H1768   1.085       .  S
C1769      C1770   1.404       .  A
C1769      C1774   1.406       .  A
C1770      C1771   1.400       .  A
C1770      H1783   1.082       .  S
C1771      C1772   1.415       .  A
C1771      H1784   1.078       .  S
C1772      C1778   1.433       .  A
C1772      C1773   1.421       .  A
C1773      C1775   1.400       .  A
C1773      C1774   1.405       .  A
C1774      H1785   1.084       .  S
C1775      C1776   1.390       .  A
C1775      H1786   1.084       .  S
C1776      C1777   1.399       .  A
C1776      H1787   1.084       .  S
C1777      C1778   1.423       .  A
C1777      C1782   1.406       .  A
C1778      C1779   1.416       .  A
C1779      C1780   1.400       .  A
C1779      H1788   1.078       .  S
C1780      C1781   1.398       .  A
C1780      H1789   1.084       .  S
C1781      C1782   1.399       .  A
C1782      H1790   1.085       .  S
C1791      C1792   1.400       .  A
C1791      C1796   1.405       .  A
C1792      C1793   1.397       .  A
C1792      H1805   1.083       .  S
C1793      C1794   1.416       .  A
C1793      H1806   1.077       .  S
C1794      C1800   1.431       .  A
C1794      C1795   1.421       .  A
C1795      C1797   1.401       .  A
C1795      C1796   1.408       .  A
C1796      H1807   1.084       .  S
C1797      C1798   1.393       .  A
C1797      H1808   1.084       .  S
C1798      C1799   1.400       .  A
C1798      H1809   1.084       .  S
C1799      C1800   1.424       .  A
C1799      C1804   1.411       .  A
C1800      C1801   1.412       .  A
C1801      C1802   1.394       .  A
C1801      H1810   1.077       .  S
C1802      C1803   1.403       .  A
C1802      H1811   1.083       .  S
C1803      C1804   1.403       .  A
C1804      H1812   1.084       .  S
C1813      C1814   1.401       .  A
C1813      C1818   1.404       .  A
C1814      C1815   1.397       .  A
C1814      H1827   1.083       .  S
C1815      C1816   1.415       .  A
C1815      H1828   1.077       .  S
C1816      C1822   1.431       .  A
C1816      C1817   1.422       .  A
C1817      C1819   1.400       .  A
C1817      C1818   1.406       .  A
C1818      H1829   1.084       .  S
C1819      C1820   1.390       .  A
C1819      H1830   1.084       .  S
C1820      C1821   1.399       .  A
C1820      H1831   1.084       .  S
C1821      C1822   1.423       .  A
C1821      C1826   1.406       .  A
C1822      C1823   1.415       .  A
C1823      C1824   1.396       .  A
C1823      H1832   1.077       .  S
C1824      C1825   1.400       .  A
C1824      H1833   1.083       .  S
C1825      C1826   1.401       .  A
C1826      H1834   1.084       .  S
C1835      C1836   1.404       .  A
C1835      C1840   1.400       .  A
C1836      C1837   1.407       .  A
C1836      H1849   1.083   1_455  S
C1837      C1838   1.418       .  A
C1837      H1850   1.078       .  S
C1838      C1844   1.436       .  A
C1838      C1839   1.422       .  A
C1839      C1841   1.396       .  A
C1839      C1840   1.397       .  A
C1840      H1851   1.085       .  S
C1841      C1842   1.382       .  A
C1841      H1852   1.084       .  S
C1842      C1843   1.397       .  A
C1842      H1853   1.084       .  S
C1843      C1844   1.422       .  A
C1843      C1848   1.397       .  A
C1844      C1845   1.419       .  A
C1845      C1846   1.408       .  A
C1845      H1854   1.078       .  S
C1846      C1847   1.404       .  A
C1846      H1855   1.083       .  S
C1847      C1848   1.402       .  A
C1848      H1856   1.085       .  S
C1857      C1858   1.401       .  A
C1857      C1862   1.403       .  A
C1858      C1859   1.398       .  A
C1858      H1871   1.083       .  S
C1859      C1860   1.416       .  A
C1859      H1872   1.077       .  S
C1860      C1866   1.431       .  A
C1860      C1861   1.422       .  A
C1861      C1863   1.399       .  A
C1861      C1862   1.403       .  A
C1862      H1873   1.084       .  S
C1863      C1864   1.389       .  A
C1863      H1874   1.084       .  S
C1864      C1865   1.399       .  A
C1864      H1875   1.084       .  S
C1865      C1866   1.422       .  A
C1865      C1870   1.405       .  A
C1866      C1867   1.413       .  A
C1867      C1868   1.396       .  A
C1867      H1876   1.077       .  S
C1868      C1869   1.404       .  A
C1868      H1877   1.082       .  S
C1869      C1870   1.404       .  A
C1870      H1878   1.083       .  S
C1879      C1880   1.404       .  A
C1879      C1884   1.407       .  A
C1880      C1881   1.399       .  A
C1880      H1893   1.082       .  S
C1881      C1882   1.415       .  A
C1881      H1894   1.077       .  S
C1882      C1888   1.434       .  A
C1882      C1883   1.422       .  A
C1883      C1885   1.400       .  A
C1883      C1884   1.409       .  A
C1884      H1895   1.083       .  S
C1885      C1886   1.391       .  A
C1885      H1896   1.084       .  S
C1886      C1887   1.400       .  A
C1886      H1897   1.084       .  S
C1887      C1888   1.423       .  A
C1887      C1892   1.408       .  A
C1888      C1889   1.415       .  A
C1889      C1890   1.399       .  A
C1889      H1898   1.077       .  S
C1890      C1891   1.402       .  A
C1890      H1899   1.083       .  S
C1891      C1892   1.404       .  A
C1892      H1900   1.084       .  S
C1901      C1902   1.402       .  A
C1901      C1906   1.403       .  A
C1902      C1903   1.395       .  A
C1902      H1915   1.083       .  S
C1903      C1904   1.413       .  A
C1903      H1916   1.077       .  S
C1904      C1910   1.432       .  A
C1904      C1905   1.423       .  A
C1905      C1907   1.400       .  A
C1905      C1906   1.409       .  A
C1906      H1917   1.084       .  S
C1907      C1908   1.392       .  A
C1907      H1918   1.084       .  S
C1908      C1909   1.401       .  A
C1908      H1919   1.084       .  S
C1909      C1910   1.422       .  A
C1909      C1914   1.408       .  A
C1910      C1911   1.415       .  A
C1911      C1912   1.397       .  A
C1911      H1920   1.077       .  S
C1912      C1913   1.401       .  A
C1912      H1921   1.083       .  S
C1913      C1914   1.405       .  A
C1914      H1922   1.084       .  S
C1923      C1924   1.401       .  A
C1923      C1928   1.404       .  A
C1924      C1925   1.399       .  A
C1924      H1937   1.083       .  S
C1925      C1926   1.416       .  A
C1925      H1938   1.077       .  S
C1926      C1932   1.434       .  A
C1926      C1927   1.422       .  A
C1927      C1929   1.400       .  A
C1927      C1928   1.408       .  A
C1928      H1939   1.084       .  S
C1929      C1930   1.391       .  A
C1929      H1940   1.084       .  S
C1930      C1931   1.400       .  A
C1930      H1941   1.084       .  S
C1931      C1932   1.423       .  A
C1931      C1936   1.408       .  A
C1932      C1933   1.415       .  A
C1933      C1934   1.399       .  A
C1933      H1942   1.077       .  S
C1934      C1935   1.401       .  A
C1934      H1943   1.083       .  S
C1935      C1936   1.402       .  A
C1936      H1944   1.085       .  S
C1945      C1946   1.403       .  A
C1945      C1950   1.403       .  A
C1946      C1947   1.402       .  A
C1946      H1959   1.083       .  S
C1947      C1948   1.416       .  A
C1947      H1960   1.078       .  S
C1948      C1954   1.436       .  A
C1948      C1949   1.423       .  A
C1949      C1951   1.400       .  A
C1949      C1950   1.408       .  A
C1950      H1961   1.084       .  S
C1951      C1952   1.391       .  A
C1951      H1962   1.084       .  S
C1952      C1953   1.399       .  A
C1952      H1963   1.084       .  S
C1953      C1954   1.423       .  A
C1953      C1958   1.408       .  A
C1954      C1955   1.417       .  A
C1955      C1956   1.402       .  A
C1955      H1964   1.078       .  S
C1956      C1957   1.400       .  A
C1956      H1965   1.083       .  S
C1957      C1958   1.401       .  A
C1958      H1966   1.085       .  S
C1967      C1968   1.401       .  A
C1967      C1972   1.403       .  A
C1968      C1969   1.402       .  A
C1968      H1981   1.083       .  S
C1969      C1970   1.417       .  A
C1969      H1982   1.077       .  S
C1970      C1976   1.435       .  A
C1970      C1971   1.422       .  A
C1971      C1973   1.399       .  A
C1971      C1972   1.406       .  A
C1972      H1983   1.085       .  S
C1973      C1974   1.390       .  A
C1973      H1984   1.084       .  S
C1974      C1975   1.399       .  A
C1974      H1985   1.084       .  S
C1975      C1976   1.424       .  A
C1975      C1980   1.409       .  A
C1976      C1977   1.415       .  A
C1977      C1978   1.400       .  A
C1977      H1986   1.077       .  S
C1978      C1979   1.405       .  A
C1978      H1987   1.083       .  S
C1979      C1980   1.403       .  A
C1980      H1988   1.084       .  S
C1989      C1990   1.399       .  A
C1989      C1994   1.401       .  A
C1990      C1991   1.398       .  A
C1990      H2003   1.083       .  S
C1991      C1992   1.416       .  A
C1991      H2004   1.077       .  S
C1992      C1998   1.432       .  A
C1992      C1993   1.423       .  A
C1993      C1995   1.399       .  A
C1993      C1994   1.405       .  A
C1994      H2005   1.085       .  S
C1995      C1996   1.390       .  A
C1995      H2006   1.084       .  S
C1996      C1997   1.399       .  A
C1996      H2007   1.084       .  S
C1997      C1998   1.423       .  A
C1997      C2002   1.406       .  A
C1998      C1999   1.415       .  A
C1999      C2000   1.397       .  A
C1999      H2008   1.077       .  S
C2000      C2001   1.401       .  A
C2000      H2009   1.083       .  S
C2001      C2002   1.402       .  A
C2002      H2010   1.085       .  S
C2011      C2012   1.402       .  A
C2011      C2016   1.402       .  A
C2012      C2013   1.400       .  A
C2012      H2025   1.083       .  S
C2013      C2014   1.416       .  A
C2013      H2026   1.077       .  S
C2014      C2020   1.435       .  A
C2014      C2015   1.423   1_556  A
C2015      C2017   1.399       .  A
C2015      C2016   1.407   1_554  A
C2016      H2027   1.084   1_556  S
C2017      C2018   1.390       .  A
C2017      H2028   1.084       .  S
C2018      C2019   1.400       .  A
C2018      H2029   1.084       .  S
C2019      C2020   1.422   1_554  A
C2019      C2024   1.407       .  A
C2020      C2021   1.416       .  A
C2021      C2022   1.401       .  A
C2021      H2030   1.077       .  S
C2022      C2023   1.403   1_556  A
C2022      H2031   1.083       .  S
C2023      C2024   1.405       .  A
C2024      H2032   1.084       .  S
C2033      C2034   1.400   1_565  A
C2033      C2038   1.401       .  A
C2034      C2035   1.397       .  A
C2034      H2047   1.084       .  S
C2035      C2036   1.416   1_545  A
C2035      H2048   1.077       .  S
C2036      C2042   1.433       .  A
C2036      C2037   1.423       .  A
C2037      C2039   1.400       .  A
C2037      C2038   1.409       .  A
C2038      H2049   1.084       .  S
C2039      C2040   1.391       .  A
C2039      H2050   1.084       .  S
C2040      C2041   1.400       .  A
C2040      H2051   1.084       .  S
C2041      C2042   1.422       .  A
C2041      C2046   1.408       .  A
C2042      C2043   1.414   1_565  A
C2043      C2044   1.398       .  A
C2043      H2052   1.077       .  S
C2044      C2045   1.404   1_545  A
C2044      H2053   1.082       .  S
C2045      C2046   1.406       .  A
C2046      H2054   1.084       .  S
C2055      C2056   1.401       .  A
C2055      C2060   1.400   1_455  A
C2056      C2057   1.397       .  A
C2056      H2069   1.083       .  S
C2057      C2058   1.415       .  A
C2057      H2070   1.077       .  S
C2058      C2064   1.429       .  A
C2058      C2059   1.423   1_455  A
C2059      C2061   1.398       .  A
C2059      C2060   1.402       .  A
C2060      H2071   1.085       .  S
C2061      C2062   1.388       .  A
C2061      H2072   1.084       .  S
C2062      C2063   1.399       .  A
C2062      H2073   1.084       .  S
C2063      C2064   1.422   1_655  A
C2063      C2068   1.402       .  A
C2064      C2065   1.415       .  A
C2065      C2066   1.397       .  A
C2065      H2074   1.077       .  S
C2066      C2067   1.401       .  A
C2066      H2075   1.083       .  S
C2067      C2068   1.401   1_455  A
C2068      H2076   1.084       .  S
C2077      C2078   1.402       .  A
C2077      C2082   1.403       .  A
C2078      C2079   1.399       .  A
C2078      H2091   1.083       .  S
C2079      C2080   1.415       .  A
C2079      H2092   1.077       .  S
C2080      C2086   1.434       .  A
C2080      C2081   1.423       .  A
C2081      C2083   1.399       .  A
C2081      C2082   1.408       .  A
C2082      H2093   1.084       .  S
C2083      C2084   1.390       .  A
C2083      H2094   1.084       .  S
C2084      C2085   1.400       .  A
C2084      H2095   1.084       .  S
C2085      C2086   1.422       .  A
C2085      C2090   1.406       .  A
C2086      C2087   1.416       .  A
C2087      C2088   1.400       .  A
C2087      H2096   1.077       .  S
C2088      C2089   1.402       .  A
C2088      H2097   1.083       .  S
C2089      C2090   1.404       .  A
C2090      H2098   1.084       .  S
C2099      C2100   1.399       .  A
C2099      C2104   1.400       .  A
C2100      C2101   1.399       .  A
C2100      H2113   1.083       .  S
C2101      C2102   1.416       .  A
C2101      H2114   1.077       .  S
C2102      C2108   1.431       .  A
C2102      C2103   1.423       .  A
C2103      C2105   1.399       .  A
C2103      C2104   1.403       .  A
C2104      H2115   1.085       .  S
C2105      C2106   1.388       .  A
C2105      H2116   1.084       .  S
C2106      C2107   1.399       .  A
C2106      H2117   1.084       .  S
C2107      C2108   1.422       .  A
C2107      C2112   1.403       .  A
C2108      C2109   1.416       .  A
C2109      C2110   1.399       .  A
C2109      H2118   1.077       .  S
C2110      C2111   1.400       .  A
C2110      H2119   1.083       .  S
C2111      C2112   1.401       .  A
C2112      H2120   1.085       .  S
C2121      C2122   1.402   1_655  A
C2121      C2126   1.402       .  A
C2122      C2123   1.402       .  A
C2122      H2135   1.083       .  S
C2123      C2124   1.417   1_455  A
C2123      H2136   1.078       .  S
C2124      C2130   1.436       .  A
C2124      C2125   1.423       .  A
C2125      C2127   1.399       .  A
C2125      C2126   1.407       .  A
C2126      H2137   1.085       .  S
C2127      C2128   1.389       .  A
C2127      H2138   1.084       .  S
C2128      C2129   1.399       .  A
C2128      H2139   1.084       .  S
C2129      C2130   1.422       .  A
C2129      C2134   1.407       .  A
C2130      C2131   1.416   1_655  A
C2131      C2132   1.403       .  A
C2131      H2140   1.078       .  S
C2132      C2133   1.404   1_455  A
C2132      H2141   1.083       .  S
C2133      C2134   1.404       .  A
C2134      H2142   1.084       .  S
C2143      C2144   1.402       .  A
C2143      C2148   1.401   1_565  A
C2144      C2145   1.394       .  A
C2144      H2157   1.083       .  S
C2145      C2146   1.413       .  A
C2145      H2158   1.077       .  S
C2146      C2152   1.429       .  A
C2146      C2147   1.423       .  A
C2147      C2149   1.399       .  A
C2147      C2148   1.405   1_565  A
C2148      H2159   1.084       .  S
C2149      C2150   1.389       .  A
C2149      H2160   1.084   1_565  S
C2150      C2151   1.399       .  A
C2150      H2161   1.084       .  S
C2151      C2152   1.421       .  A
C2151      C2156   1.402       .  A
C2152      C2153   1.415       .  A
C2153      C2154   1.397       .  A
C2153      H2162   1.077       .  S
C2154      C2155   1.401       .  A
C2154      H2163   1.083       .  S
C2155      C2156   1.403       .  A
C2156      H2164   1.084       .  S
C2165      C2166   1.406       .  A
C2165      C2170   1.407       .  A
C2166      C2167   1.394       .  A
C2166      H2179   1.082       .  S
C2167      C2168   1.410       .  A
C2167      H2180   1.078       .  S
C2168      C2174   1.428       .  A
C2168      C2169   1.421       .  A
C2169      C2171   1.401       .  A
C2169      C2170   1.410       .  A
C2170      H2181   1.083       .  S
C2171      C2172   1.394       .  A
C2171      H2182   1.084       .  S
C2172      C2173   1.401       .  A
C2172      H2183   1.084       .  S
C2173      C2174   1.421       .  A
C2173      C2178   1.408       .  A
C2174      C2175   1.414       .  A
C2175      C2176   1.396       .  A
C2175      H2184   1.078       .  S
C2176      C2177   1.400       .  A
C2176      H2185   1.083       .  S
C2177      C2178   1.404       .  A
C2178      H2186   1.084       .  S
C2187      C2188   1.399       .  A
C2187      C2192   1.399       .  A
C2188      C2189   1.395       .  A
C2188      H2201   1.084       .  S
C2189      C2190   1.415       .  A
C2189      H2202   1.077       .  S
C2190      C2196   1.429       .  A
C2190      C2191   1.423       .  A
C2191      C2193   1.399       .  A
C2191      C2192   1.404       .  A
C2192      H2203   1.085       .  S
C2193      C2194   1.389       .  A
C2193      H2204   1.084       .  S
C2194      C2195   1.399       .  A
C2194      H2205   1.084       .  S
C2195      C2196   1.423       .  A
C2195      C2200   1.403       .  A
C2196      C2197   1.417       .  A
C2197      C2198   1.397       .  A
C2197      H2206   1.077       .  S
C2198      C2199   1.395       .  A
C2198      H2207   1.084       .  S
C2199      C2200   1.397       .  A
C2200      H2208   1.085       .  S
C2209      C2210   1.403       .  A
C2209      C2214   1.403       .  A
C2210      C2211   1.406       .  A
C2210      H2223   1.083       .  S
C2211      C2212   1.418       .  A
C2211      H2224   1.078       .  S
C2212      C2218   1.435       .  A
C2212      C2213   1.421       .  A
C2213      C2215   1.398       .  A
C2213      C2214   1.400       .  A
C2214      H2225   1.084       .  S
C2215      C2216   1.385       .  A
C2215      H2226   1.084       .  S
C2216      C2217   1.397       .  A
C2216      H2227   1.084       .  S
C2217      C2218   1.424       .  A
C2217      C2222   1.401       .  A
C2218      C2219   1.417       .  A
C2219      C2220   1.404       .  A
C2219      H2228   1.078       .  S
C2220      C2221   1.401       .  A
C2220      H2229   1.083       .  S
C2221      C2222   1.398       .  A
C2222      H2230   1.085       .  S
C2231      C2232   1.403       .  A
C2231      C2236   1.403       .  A
C2232      C2233   1.406       .  A
C2232      H2245   1.083       .  S
C2233      C2234   1.419       .  A
C2233      H2246   1.078       .  S
C2234      C2240   1.436       .  A
C2234      C2235   1.422       .  A
C2235      C2237   1.398       .  A
C2235      C2236   1.400       .  A
C2236      H2247   1.085       .  S
C2237      C2238   1.385       .  A
C2237      H2248   1.084       .  S
C2238      C2239   1.397       .  A
C2238      H2249   1.084       .  S
C2239      C2240   1.424       .  A
C2239      C2244   1.401       .  A
C2240      C2241   1.419       .  A
C2241      C2242   1.405       .  A
C2241      H2250   1.078       .  S
C2242      C2243   1.400       .  A
C2242      H2251   1.083       .  S
C2243      C2244   1.396       .  A
C2244      H2252   1.085       .  S
C2253      C2254   1.401       .  A
C2253      C2258   1.402       .  A
C2254      C2255   1.398       .  A
C2254      H2267   1.083       .  S
C2255      C2256   1.416       .  A
C2255      H2268   1.077       .  S
C2256      C2262   1.429       .  A
C2256      C2257   1.422       .  A
C2257      C2259   1.399       .  A
C2257      C2258   1.401       .  A
C2258      H2269   1.084       .  S
C2259      C2260   1.387       .  A
C2259      H2270   1.084       .  S
C2260      C2261   1.398       .  A
C2260      H2271   1.084   1_565  S
C2261      C2262   1.423       .  A
C2261      C2266   1.402       .  A
C2262      C2263   1.415       .  A
C2263      C2264   1.396       .  A
C2263      H2272   1.077       .  S
C2264      C2265   1.401       .  A
C2264      H2273   1.083       .  S
C2265      C2266   1.399       .  A
C2266      H2274   1.085   1_565  S
C2275      C2276   1.403       .  A
C2275      C2280   1.403       .  A
C2276      C2277   1.394       .  A
C2276      H2289   1.083       .  S
C2277      C2278   1.413       .  A
C2277      H2290   1.077       .  S
C2278      C2284   1.430       .  A
C2278      C2279   1.423       .  A
C2279      C2281   1.400       .  A
C2279      C2280   1.409       .  A
C2280      H2291   1.084       .  S
C2281      C2282   1.392       .  A
C2281      H2292   1.084       .  S
C2282      C2283   1.400       .  A
C2282      H2293   1.084       .  S
C2283      C2284   1.422       .  A
C2283      C2288   1.407       .  A
C2284      C2285   1.416       .  A
C2285      C2286   1.396       .  A
C2285      H2294   1.077       .  S
C2286      C2287   1.399       .  A
C2286      H2295   1.083       .  S
C2287      C2288   1.403       .  A
C2288      H2296   1.084       .  S
C2297      C2298   1.402       .  A
C2297      C2302   1.401       .  A
C2298      C2299   1.405       .  A
C2298      H2311   1.083       .  S
C2299      C2300   1.418       .  A
C2299      H2312   1.078       .  S
C2300      C2306   1.434       .  A
C2300      C2301   1.422       .  A
C2301      C2303   1.398       .  A
C2301      C2302   1.398       .  A
C2302      H2313   1.085       .  S
C2303      C2304   1.384       .  A
C2303      H2314   1.084       .  S
C2304      C2305   1.397       .  A
C2304      H2315   1.084       .  S
C2305      C2306   1.423       .  A
C2305      C2310   1.398       .  A
C2306      C2307   1.418       .  A
C2307      C2308   1.404       .  A
C2307      H2316   1.078       .  S
C2308      C2309   1.400       .  A
C2308      H2317   1.083       .  S
C2309      C2310   1.398       .  A
C2310      H2318   1.085       .  S
C2319      C2320   1.398       .  A
C2319      C2324   1.400       .  A
C2320      C2321   1.396       .  A
C2320      H2333   1.084       .  S
C2321      C2322   1.414       .  A
C2321      H2334   1.077       .  S
C2322      C2328   1.431       .  A
C2322      C2323   1.425       .  A
C2323      C2325   1.400       .  A
C2323      C2324   1.411       .  A
C2324      H2335   1.084       .  S
C2325      C2326   1.393       .  A
C2325      H2336   1.084       .  S
C2326      C2327   1.401       .  A
C2326      H2337   1.084       .  S
C2327      C2328   1.421       .  A
C2327      C2332   1.407       .  A
C2328      C2329   1.417       .  A
C2329      C2330   1.398       .  A
C2329      H2338   1.077       .  S
C2330      C2331   1.398       .  A
C2330      H2339   1.083       .  S
C2331      C2332   1.403       .  A
C2332      H2340   1.085       .  S
C2341      C2342   1.402   1_455  A
C2341      C2346   1.405       .  A
C2342      C2343   1.398       .  A
C2342      H2355   1.083       .  S
C2343      C2344   1.415   1_655  A
C2343      H2356   1.077       .  S
C2344      C2350   1.434       .  A
C2344      C2345   1.422       .  A
C2345      C2347   1.400       .  A
C2345      C2346   1.409       .  A
C2346      H2357   1.084       .  S
C2347      C2348   1.392       .  A
C2347      H2358   1.084       .  S
C2348      C2349   1.400       .  A
C2348      H2359   1.084       .  S
C2349      C2350   1.423       .  A
C2349      C2354   1.410       .  A
C2350      C2351   1.414       .  A
C2351      C2352   1.397       .  A
C2351      H2360   1.077   1_455  S
C2352      C2353   1.402       .  A
C2352      H2361   1.083   1_455  S
C2353      C2354   1.404       .  A
C2354      H2362   1.084       .  S
C2363      C2364   1.403       .  A
C2363      C2368   1.404       .  A
C2364      C2365   1.406       .  A
C2364      H2377   1.083       .  S
C2365      C2366   1.419       .  A
C2365      H2378   1.078       .  S
C2366      C2372   1.436       .  A
C2366      C2367   1.421       .  A
C2367      C2369   1.399       .  A
C2367      C2368   1.401       .  A
C2368      H2379   1.084       .  S
C2369      C2370   1.386       .  A
C2369      H2380   1.084       .  S
C2370      C2371   1.398       .  A
C2370      H2381   1.084       .  S
C2371      C2372   1.423       .  A
C2371      C2376   1.401       .  A
C2372      C2373   1.417       .  A
C2373      C2374   1.405       .  A
C2373      H2382   1.078       .  S
C2374      C2375   1.404       .  A
C2374      H2383   1.083       .  S
C2375      C2376   1.403       .  A
C2376      H2384   1.084       .  S
C2385      C2386   1.401       .  A
C2385      C2390   1.404   1_455  A
C2386      C2387   1.397       .  A
C2386      H2399   1.083       .  S
C2387      C2388   1.415       .  A
C2387      H2400   1.077       .  S
C2388      C2394   1.431       .  A
C2388      C2389   1.422   1_455  A
C2389      C2391   1.400       .  A
C2389      C2390   1.406       .  A
C2390      H2401   1.084       .  S
C2391      C2392   1.391       .  A
C2391      H2402   1.084       .  S
C2392      C2393   1.399       .  A
C2392      H2403   1.084       .  S
C2393      C2394   1.423   1_655  A
C2393      C2398   1.407       .  A
C2394      C2395   1.414       .  A
C2395      C2396   1.396       .  A
C2395      H2404   1.077       .  S
C2396      C2397   1.401       .  A
C2396      H2405   1.083       .  S
C2397      C2398   1.402   1_455  A
C2398      H2406   1.084       .  S
C2407      C2408   1.402       .  A
C2407      C2412   1.403       .  A
C2408      C2409   1.400       .  A
C2408      H2421   1.083       .  S
C2409      C2410   1.416       .  A
C2409      H2422   1.077       .  S
C2410      C2416   1.432       .  A
C2410      C2411   1.422       .  A
C2411      C2413   1.398       .  A
C2411      C2412   1.402       .  A
C2412      H2423   1.084       .  S
C2413      C2414   1.387       .  A
C2413      H2424   1.084       .  S
C2414      C2415   1.398       .  A
C2414      H2425   1.084       .  S
C2415      C2416   1.422       .  A
C2415      C2420   1.401       .  A
C2416      C2417   1.417       .  A
C2417      C2418   1.401   1_554  A
C2417      H2426   1.077       .  S
C2418      C2419   1.402   1_556  A
C2418      H2427   1.083       .  S
C2419      C2420   1.402       .  A
C2420      H2428   1.084       .  S
C2429      C2430   1.403   1_565  A
C2429      C2434   1.406       .  A
C2430      C2431   1.398       .  A
C2430      H2443   1.083       .  S
C2431      C2432   1.415   1_545  A
C2431      H2444   1.077       .  S
C2432      C2438   1.435       .  A
C2432      C2433   1.423       .  A
C2433      C2435   1.401       .  A
C2433      C2434   1.412       .  A
C2434      H2445   1.084       .  S
C2435      C2436   1.393       .  A
C2435      H2446   1.084       .  S
C2436      C2437   1.401       .  A
C2436      H2447   1.084       .  S
C2437      C2438   1.423       .  A
C2437      C2442   1.412       .  A
C2438      C2439   1.415   1_565  A
C2439      C2440   1.397       .  A
C2439      H2448   1.077       .  S
C2440      C2441   1.402   1_545  A
C2440      H2449   1.083       .  S
C2441      C2442   1.404       .  A
C2442      H2450   1.084       .  S
C2451      C2452   1.403       .  A
C2451      C2456   1.407       .  A
C2452      C2453   1.391       .  A
C2452      H2465   1.083       .  S
C2453      C2454   1.411       .  A
C2453      H2466   1.077       .  S
C2454      C2460   1.430       .  A
C2454      C2455   1.422       .  A
C2455      C2457   1.402       .  A
C2455      C2456   1.415       .  A
C2456      H2467   1.084       .  S
C2457      C2458   1.397       .  A
C2457      H2468   1.084       .  S
C2458      C2459   1.402       .  A
C2458      H2469   1.084       .  S
C2459      C2460   1.422       .  A
C2459      C2464   1.414       .  A
C2460      C2461   1.413       .  A
C2461      C2462   1.392       .  A
C2461      H2470   1.077       .  S
C2462      C2463   1.399       .  A
C2462      H2471   1.084       .  S
C2463      C2464   1.404       .  A
C2464      H2472   1.084       .  S
C2473      C2474   1.402       .  A
C2473      C2478   1.403       .  A
C2474      C2475   1.405       .  A
C2474      H2487   1.083       .  S
C2475      C2476   1.418       .  A
C2475      H2488   1.078       .  S
C2476      C2482   1.436       .  A
C2476      C2477   1.422       .  A
C2477      C2479   1.398       .  A
C2477      C2478   1.402       .  A
C2478      H2489   1.085       .  S
C2479      C2480   1.386       .  A
C2479      H2490   1.084       .  S
C2480      C2481   1.398       .  A
C2480      H2491   1.084       .  S
C2481      C2482   1.423       .  A
C2481      C2486   1.402       .  A
C2482      C2483   1.417       .  A
C2483      C2484   1.404       .  A
C2483      H2492   1.078       .  S
C2484      C2485   1.403       .  A
C2484      H2493   1.083       .  S
C2485      C2486   1.402       .  A
C2486      H2494   1.084   1_545  S
C2495      C2496   1.402       .  A
C2495      C2500   1.405       .  A
C2496      C2497   1.402       .  A
C2496      H2509   1.083   1_554  S
C2497      C2498   1.417       .  A
C2497      H2510   1.077   1_554  S
C2498      C2504   1.439       .  A
C2498      C2499   1.423       .  A
C2499      C2501   1.400       .  A
C2499      C2500   1.412       .  A
C2500      H2511   1.084       .  S
C2501      C2502   1.393       .  A
C2501      H2512   1.084       .  S
C2502      C2503   1.401       .  A
C2502      H2513   1.084       .  S
C2503      C2504   1.422       .  A
C2503      C2508   1.412       .  A
C2504      C2505   1.416   1_554  A
C2505      C2506   1.403       .  A
C2505      H2514   1.077       .  S
C2506      C2507   1.404   1_556  A
C2506      H2515   1.083       .  S
C2507      C2508   1.408       .  A
C2508      H2516   1.084       .  S
C2517      C2518   1.401       .  A
C2517      C2522   1.401       .  A
C2518      C2519   1.402       .  A
C2518      H2531   1.083       .  S
C2519      C2520   1.416       .  A
C2519      H2532   1.078       .  S
C2520      C2526   1.435       .  A
C2520      C2521   1.423       .  A
C2521      C2523   1.399       .  A
C2521      C2522   1.406       .  A
C2522      H2533   1.085       .  S
C2523      C2524   1.389       .  A
C2523      H2534   1.084       .  S
C2524      C2525   1.400       .  A
C2524      H2535   1.084       .  S
C2525      C2526   1.420       .  A
C2525      C2530   1.404       .  A
C2526      C2527   1.416       .  A
C2527      C2528   1.404   1_545  A
C2527      H2536   1.078   1_545  S
C2528      C2529   1.405       .  A
C2528      H2537   1.082       .  S
C2529      C2530   1.409   1_565  A
C2530      H2538   1.083       .  S
C2539      C2540   1.400       .  A
C2539      C2544   1.403       .  A
C2540      C2541   1.397       .  A
C2540      H2553   1.083       .  S
C2541      C2542   1.415       .  A
C2541      H2554   1.077       .  S
C2542      C2548   1.433       .  A
C2542      C2543   1.423       .  A
C2543      C2545   1.400   1_554  A
C2543      C2544   1.408       .  A
C2544      H2555   1.084   1_554  S
C2545      C2546   1.392       .  A
C2545      H2556   1.084       .  S
C2546      C2547   1.400   1_556  A
C2546      H2557   1.084       .  S
C2547      C2548   1.423       .  A
C2547      C2552   1.410       .  A
C2548      C2549   1.414       .  A
C2549      C2550   1.396       .  A
C2549      H2558   1.077       .  S
C2550      C2551   1.402       .  A
C2550      H2559   1.083       .  S
C2551      C2552   1.404       .  A
C2552      H2560   1.084   1_554  S
C2561      C2562   1.399       .  A
C2561      C2566   1.398       .  A
C2562      C2563   1.401       .  A
C2562      H2575   1.084       .  S
C2563      C2564   1.417       .  A
C2563      H2576   1.078       .  S
C2564      C2570   1.434       .  A
C2564      C2565   1.423       .  A
C2565      C2567   1.399       .  A
C2565      C2566   1.406       .  A
C2566      H2577   1.085       .  S
C2567      C2568   1.390       .  A
C2567      H2578   1.084       .  S
C2568      C2569   1.400       .  A
C2568      H2579   1.084       .  S
C2569      C2570   1.422       .  A
C2569      C2574   1.406       .  A
C2570      C2571   1.415       .  A
C2571      C2572   1.400       .  A
C2571      H2580   1.078       .  S
C2572      C2573   1.404       .  A
C2572      H2581   1.082       .  S
C2573      C2574   1.405       .  A
C2574      H2582   1.084       .  S
C2583      C2584   1.401   1_565  A
C2583      C2588   1.401       .  A
C2584      C2585   1.399       .  A
C2584      H2597   1.083       .  S
C2585      C2586   1.415       .  A
C2585      H2598   1.077       .  S
C2586      C2592   1.432       .  A
C2586      C2587   1.423   1_545  A
C2587      C2589   1.399       .  A
C2587      C2588   1.405       .  A
C2588      H2599   1.085       .  S
C2589      C2590   1.389       .  A
C2589      H2600   1.084       .  S
C2590      C2591   1.399       .  A
C2590      H2601   1.084       .  S
C2591      C2592   1.422   1_565  A
C2591      C2596   1.404       .  A
C2592      C2593   1.416       .  A
C2593      C2594   1.400       .  A
C2593      H2602   1.077       .  S
C2594      C2595   1.401       .  A
C2594      H2603   1.083       .  S
C2595      C2596   1.402   1_545  A
C2596      H2604   1.084       .  S
C2605      C2606   1.400       .  A
C2605      C2610   1.403   1_655  A
C2606      C2607   1.398   1_655  A
C2606      H2619   1.083       .  S
C2607      C2608   1.416       .  A
C2607      H2620   1.077   1_455  S
C2608      C2614   1.431       .  A
C2608      C2609   1.422       .  A
C2609      C2611   1.400       .  A
C2609      C2610   1.405       .  A
C2610      H2621   1.085       .  S
C2611      C2612   1.390       .  A
C2611      H2622   1.084       .  S
C2612      C2613   1.400       .  A
C2612      H2623   1.084       .  S
C2613      C2614   1.423       .  A
C2613      C2618   1.407       .  A
C2614      C2615   1.414       .  A
C2615      C2616   1.397       .  A
C2615      H2624   1.077       .  S
C2616      C2617   1.402       .  A
C2616      H2625   1.083       .  S
C2617      C2618   1.403       .  A
C2618      H2626   1.084       .  S
C2627      C2628   1.402       .  A
C2627      C2632   1.401   1_455  A
C2628      C2629   1.396       .  A
C2628      H2641   1.083   1_545  S
C2629      C2630   1.414       .  A
C2629      H2642   1.077       .  S
C2630      C2636   1.431       .  A
C2630      C2631   1.423       .  A
C2631      C2633   1.399       .  A
C2631      C2632   1.406   1_455  A
C2632      H2643   1.084       .  S
C2633      C2634   1.389       .  A
C2633      H2644   1.084   1_455  S
C2634      C2635   1.400       .  A
C2634      H2645   1.084       .  S
C2635      C2636   1.421       .  A
C2635      C2640   1.404       .  A
C2636      C2637   1.416       .  A
C2637      C2638   1.398       .  A
C2637      H2646   1.077       .  S
C2638      C2639   1.401       .  A
C2638      H2647   1.083       .  S
C2639      C2640   1.404       .  A
C2640      H2648   1.084       .  S
C2649      C2650   1.403       .  A
C2649      C2654   1.405   1_565  A
C2650      C2651   1.401       .  A
C2650      H2663   1.083       .  S
C2651      C2652   1.416       .  A
C2651      H2664   1.077       .  S
C2652      C2658   1.436       .  A
C2652      C2653   1.422   1_565  A
C2653      C2655   1.400       .  A
C2653      C2654   1.408       .  A
C2654      H2665   1.084       .  S
C2655      C2656   1.391       .  A
C2655      H2666   1.084       .  S
C2656      C2657   1.400       .  A
C2656      H2667   1.084       .  S
C2657      C2658   1.423   1_545  A
C2657      C2662   1.409       .  A
C2658      C2659   1.416       .  A
C2659      C2660   1.401       .  A
C2659      H2668   1.077       .  S
C2660      C2661   1.402       .  A
C2660      H2669   1.083       .  S
C2661      C2662   1.403   1_565  A
C2662      H2670   1.084       .  S
C2671      C2672   1.399       .  A
C2671      C2676   1.405       .  A
C2672      C2673   1.392       .  A
C2672      H2685   1.084       .  S
C2673      C2674   1.412       .  A
C2673      H2686   1.078       .  S
C2674      C2680   1.426       .  A
C2674      C2675   1.421       .  A
C2675      C2677   1.402       .  A
C2675      C2676   1.412       .  A
C2676      H2687   1.084       .  S
C2677      C2678   1.397       .  A
C2677      H2688   1.084       .  S
C2678      C2679   1.402       .  A
C2678      H2689   1.084       .  S
C2679      C2680   1.420       .  A
C2679      C2684   1.414       .  A
C2680      C2681   1.408       .  A
C2681      C2682   1.390       .  A
C2681      H2690   1.078       .  S
C2682      C2683   1.407       .  A
C2682      H2691   1.082       .  S
C2683      C2684   1.410       .  A
C2684      H2692   1.083       .  S
C2693      C2694   1.400       .  A
C2693      C2698   1.400       .  A
C2694      C2695   1.400       .  A
C2694      H2707   1.083       .  S
C2695      C2696   1.417       .  A
C2695      H2708   1.078       .  S
C2696      C2702   1.434       .  A
C2696      C2697   1.423       .  A
C2697      C2699   1.399       .  A
C2697      C2698   1.405       .  A
C2698      H2709   1.085       .  S
C2699      C2700   1.389       .  A
C2699      H2710   1.084       .  S
C2700      C2701   1.399       .  A
C2700      H2711   1.084       .  S
C2701      C2702   1.423       .  A
C2701      C2706   1.406       .  A
C2702      C2703   1.416       .  A
C2703      C2704   1.400       .  A
C2703      H2712   1.078       .  S
C2704      C2705   1.402       .  A
C2704      H2713   1.083       .  S
C2705      C2706   1.401       .  A
C2706      H2714   1.085       .  S
C2715      C2716   1.399       .  A
C2715      C2720   1.401       .  A
C2716      C2717   1.397       .  A
C2716      H2729   1.083       .  S
C2717      C2718   1.416       .  A
C2717      H2730   1.077       .  S
C2718      C2724   1.431       .  A
C2718      C2719   1.423       .  A
C2719      C2721   1.400       .  A
C2719      C2720   1.407       .  A
C2720      H2731   1.085       .  S
C2721      C2722   1.391       .  A
C2721      H2732   1.084       .  S
C2722      C2723   1.400       .  A
C2722      H2733   1.084       .  S
C2723      C2724   1.423       .  A
C2723      C2728   1.408       .  A
C2724      C2725   1.414       .  A
C2725      C2726   1.395       .  A
C2725      H2734   1.077       .  S
C2726      C2727   1.401       .  A
C2726      H2735   1.083       .  S
C2727      C2728   1.403       .  A
C2728      H2736   1.084       .  S
C2737      C2738   1.399       .  A
C2737      C2742   1.402   1_565  A
C2738      C2739   1.402       .  A
C2738      H2751   1.083       .  S
C2739      C2740   1.418   1_565  A
C2739      H2752   1.077       .  S
C2740      C2746   1.434       .  A
C2740      C2741   1.422       .  A
C2741      C2743   1.399       .  A
C2741      C2742   1.404       .  A
C2742      H2753   1.085       .  S
C2743      C2744   1.389       .  A
C2743      H2754   1.084       .  S
C2744      C2745   1.399       .  A
C2744      H2755   1.084       .  S
C2745      C2746   1.423       .  A
C2745      C2750   1.406       .  A
C2746      C2747   1.415       .  A
C2747      C2748   1.399       .  A
C2747      H2756   1.077       .  S
C2748      C2749   1.403       .  A
C2748      H2757   1.083       .  S
C2749      C2750   1.402       .  A
C2750      H2758   1.084       .  S
C2759      C2760   1.401       .  A
C2759      C2764   1.398       .  A
C2760      C2761   1.403       .  A
C2760      H2773   1.083       .  S
C2761      C2762   1.417       .  A
C2761      H2774   1.078       .  S
C2762      C2768   1.435       .  A
C2762      C2763   1.424       .  A
C2763      C2765   1.397       .  A
C2763      C2764   1.402       .  A
C2764      H2775   1.085   1_556  S
C2765      C2766   1.386       .  A
C2765      H2776   1.084       .  S
C2766      C2767   1.399       .  A
C2766      H2777   1.084       .  S
C2767      C2768   1.421       .  A
C2767      C2772   1.400       .  A
C2768      C2769   1.419       .  A
C2769      C2770   1.405       .  A
C2769      H2778   1.078       .  S
C2770      C2771   1.402       .  A
C2770      H2779   1.083       .  S
C2771      C2772   1.404       .  A
C2772      H2780   1.084       .  S
C2781      C2782   1.401       .  A
C2781      C2786   1.400       .  A
C2782      C2783   1.399       .  A
C2782      H2795   1.083       .  S
C2783      C2784   1.415       .  A
C2783      H2796   1.078       .  S
C2784      C2790   1.432       .  A
C2784      C2785   1.423       .  A
C2785      C2787   1.398       .  A
C2785      C2786   1.403       .  A
C2786      H2797   1.085       .  S
C2787      C2788   1.388       .  A
C2787      H2798   1.084       .  S
C2788      C2789   1.399       .  A
C2788      H2799   1.084       .  S
C2789      C2790   1.421       .  A
C2789      C2794   1.402       .  A
C2790      C2791   1.416       .  A
C2791      C2792   1.401       .  A
C2791      H2800   1.078       .  S
C2792      C2793   1.403       .  A
C2792      H2801   1.082   1_556  S
C2793      C2794   1.404       .  A
C2794      H2802   1.084       .  S
C2803      C2804   1.399       .  A
C2803      C2808   1.399       .  A
C2804      C2805   1.401       .  A
C2804      H2817   1.083       .  S
C2805      C2806   1.417       .  A
C2805      H2818   1.078       .  S
C2806      C2812   1.433       .  A
C2806      C2807   1.423       .  A
C2807      C2809   1.399       .  A
C2807      C2808   1.404       .  A
C2808      H2819   1.085       .  S
C2809      C2810   1.389       .  A
C2809      H2820   1.084       .  S
C2810      C2811   1.399       .  A
C2810      H2821   1.084       .  S
C2811      C2812   1.422       .  A
C2811      C2816   1.405       .  A
C2812      C2813   1.415       .  A
C2813      C2814   1.400       .  A
C2813      H2822   1.078       .  S
C2814      C2815   1.403       .  A
C2814      H2823   1.083       .  S
C2815      C2816   1.404       .  A
C2816      H2824   1.084       .  S
C2825      C2826   1.401       .  A
C2825      C2830   1.406       .  A
C2826      C2827   1.396       .  A
C2826      H2839   1.083       .  S
C2827      C2828   1.415       .  A
C2827      H2840   1.077       .  S
C2828      C2834   1.431       .  A
C2828      C2829   1.421       .  A
C2829      C2831   1.401       .  A
C2829      C2830   1.409       .  A
C2830      H2841   1.084       .  S
C2831      C2832   1.393       .  A
C2831      H2842   1.084       .  S
C2832      C2833   1.400       .  A
C2832      H2843   1.084       .  S
C2833      C2834   1.424       .  A
C2833      C2838   1.412       .  A
C2834      C2835   1.412       .  A
C2835      C2836   1.393       .  A
C2835      H2844   1.077       .  S
C2836      C2837   1.401       .  A
C2836      H2845   1.084   1_545  S
C2837      C2838   1.401       .  A
C2838      H2846   1.084       .  S
C2847      C2848   1.400       .  A
C2847      C2852   1.403       .  A
C2848      C2849   1.396       .  A
C2848      H2861   1.083       .  S
C2849      C2850   1.416       .  A
C2849      H2862   1.077       .  S
C2850      C2856   1.430       .  A
C2850      C2851   1.422       .  A
C2851      C2853   1.400       .  A
C2851      C2852   1.407       .  A
C2852      H2863   1.084       .  S
C2853      C2854   1.392       .  A
C2853      H2864   1.084       .  S
C2854      C2855   1.400       .  A
C2854      H2865   1.084       .  S
C2855      C2856   1.424       .  A
C2855      C2860   1.409       .  A
C2856      C2857   1.414       .  A
C2857      C2858   1.395       .  A
C2857      H2866   1.077       .  S
C2858      C2859   1.397       .  A
C2858      H2867   1.084       .  S
C2859      C2860   1.399       .  A
C2860      H2868   1.085       .  S
C2869      C2870   1.403       .  A
C2869      C2874   1.406       .  A
C2870      C2871   1.399       .  A
C2870      H2883   1.083       .  S
C2871      C2872   1.415       .  A
C2871      H2884   1.077       .  S
C2872      C2878   1.432       .  A
C2872      C2873   1.421       .  A
C2873      C2875   1.400       .  A
C2873      C2874   1.405       .  A
C2874      H2885   1.084       .  S
C2875      C2876   1.390       .  A
C2875      H2886   1.084       .  S
C2876      C2877   1.399       .  A
C2876      H2887   1.084       .  S
C2877      C2878   1.422       .  A
C2877      C2882   1.406       .  A
C2878      C2879   1.415       .  A
C2879      C2880   1.398       .  A
C2879      H2888   1.077       .  S
C2880      C2881   1.402       .  A
C2880      H2889   1.083       .  S
C2881      C2882   1.404       .  A
C2882      H2890   1.084       .  S
C2891      C2892   1.402       .  A
C2891      C2896   1.402       .  A
C2892      C2893   1.389       .  A
C2892      H2905   1.084       .  S
C2893      C2894   1.410       .  A
C2893      H2906   1.073       .  S
C2894      C2900   1.429       .  A
C2894      C2895   1.425       .  A
C2895      C2897   1.400       .  A
C2895      C2896   1.414       .  A
C2896      H2907   1.084       .  S
C2897      C2898   1.394       .  A
C2897      H2908   1.084       .  S
C2898      C2899   1.401       .  A
C2898      H2909   1.084       .  S
C2899      C2900   1.422       .  A
C2899      C2904   1.408       .  A
C2900      C2901   1.417       .  A
C2901      C2902   1.394       .  A
C2901      H2910   1.073       .  S
C2902      C2903   1.394       .  A
C2902      H2911   1.084       .  S
C2903      C2904   1.400       .  A
C2904      H2912   1.084       .  S
C2913      C2914   1.401       .  A
C2913      C2918   1.404       .  A
C2914      C2915   1.399       .  A
C2914      H2927   1.083       .  S
C2915      C2916   1.416       .  A
C2915      H2928   1.077       .  S
C2916      C2922   1.432       .  A
C2916      C2917   1.421       .  A
C2917      C2919   1.399       .  A
C2917      C2918   1.404       .  A
C2918      H2929   1.084       .  S
C2919      C2920   1.389       .  A
C2919      H2930   1.084       .  S
C2920      C2921   1.399       .  A
C2920      H2931   1.084       .  S
C2921      C2922   1.423       .  A
C2921      C2926   1.406       .  A
C2922      C2923   1.414       .  A
C2923      C2924   1.397       .  A
C2923      H2932   1.077       .  S
C2924      C2925   1.403       .  A
C2924      H2933   1.083       .  S
C2925      C2926   1.402       .  A
C2926      H2934   1.084       .  S
C2935      C2936   1.404       .  A
C2935      C2940   1.406       .  A
C2936      C2937   1.390       .  A
C2936      H2949   1.083       .  S
C2937      C2938   1.410       .  A
C2937      H2950   1.077       .  S
C2938      C2944   1.428       .  A
C2938      C2939   1.422       .  A
C2939      C2941   1.402       .  A
C2939      C2940   1.415       .  A
C2940      H2951   1.084       .  S
C2941      C2942   1.397       .  A
C2941      H2952   1.084       .  S
C2942      C2943   1.402       .  A
C2942      H2953   1.084       .  S
C2943      C2944   1.422       .  A
C2943      C2948   1.413       .  A
C2944      C2945   1.412       .  A
C2945      C2946   1.391       .  A
C2945      H2954   1.077       .  S
C2946      C2947   1.401       .  A
C2946      H2955   1.084       .  S
C2947      C2948   1.405       .  A
C2948      H2956   1.084       .  S
C2957      C2958   1.403       .  A
C2957      C2962   1.405       .  A
C2958      C2959   1.397       .  A
C2958      H2971   1.083       .  S
C2959      C2960   1.414       .  A
C2959      H2972   1.077       .  S
C2960      C2966   1.433       .  A
C2960      C2961   1.423       .  A
C2961      C2963   1.400       .  A
C2961      C2962   1.409       .  A
C2962      H2973   1.084       .  S
C2963      C2964   1.392       .  A
C2963      H2974   1.084       .  S
C2964      C2965   1.401       .  A
C2964      H2975   1.084       .  S
C2965      C2966   1.421       .  A
C2965      C2970   1.408       .  A
C2966      C2967   1.415       .  A
C2967      C2968   1.398       .  A
C2967      H2976   1.077       .  S
C2968      C2969   1.403       .  A
C2968      H2977   1.082       .  S
C2969      C2970   1.407       .  A
C2970      H2978   1.084       .  S
C2979      C2980   1.402       .  A
C2979      C2984   1.405       .  A
C2980      C2981   1.398       .  A
C2980      H2993   1.083       .  S
C2981      C2982   1.415       .  A
C2981      H2994   1.077       .  S
C2982      C2988   1.434       .  A
C2982      C2983   1.423       .  A
C2983      C2985   1.400       .  A
C2983      C2984   1.410       .  A
C2984      H2995   1.084       .  S
C2985      C2986   1.392       .  A
C2985      H2996   1.084       .  S
C2986      C2987   1.400       .  A
C2986      H2997   1.084       .  S
C2987      C2988   1.422       .  A
C2987      C2992   1.409       .  A
C2988      C2989   1.416       .  A
C2989      C2990   1.398       .  A
C2989      H2998   1.077       .  S
C2990      C2991   1.401       .  A
C2990      H2999   1.083       .  S
C2991      C2992   1.405       .  A
C2992      H3000   1.084       .  S
C3001      C3002   1.403       .  A
C3001      C3006   1.406       .  A
C3002      C3003   1.402       .  A
C3002      H3015   1.083       .  S
C3003      C3004   1.417       .  A
C3003      H3016   1.077       .  S
C3004      C3010   1.437       .  A
C3004      C3005   1.422       .  A
C3005      C3007   1.400   1_554  A
C3005      C3006   1.409       .  A
C3006      H3017   1.084       .  S
C3007      C3008   1.392       .  A
C3007      H3018   1.084       .  S
C3008      C3009   1.400       .  A
C3008      H3019   1.084       .  S
C3009      C3010   1.424   1_556  A
C3009      C3014   1.411       .  A
C3010      C3011   1.415       .  A
C3011      C3012   1.401       .  A
C3011      H3020   1.077       .  S
C3012      C3013   1.403   1_554  A
C3012      H3021   1.083       .  S
C3013      C3014   1.403       .  A
C3014      H3022   1.084       .  S
C3023      C3024   1.398       .  A
C3023      C3028   1.406       .  A
C3024      C3025   1.390       .  A
C3024      H3037   1.084       .  S
C3025      C3026   1.414       .  A
C3025      H3038   1.076       .  S
C3026      C3032   1.431       .  A
C3026      C3027   1.422       .  A
C3027      C3029   1.404       .  A
C3027      C3028   1.417       .  A
C3028      H3039   1.084       .  S
C3029      C3030   1.400       .  A
C3029      H3040   1.084       .  S
C3030      C3031   1.403       .  A
C3030      H3041   1.084       .  S
C3031      C3032   1.424       .  A
C3031      C3036   1.421       .  A
C3032      C3033   1.409       .  A
C3033      C3034   1.387       .  A
C3033      H3042   1.076       .  S
C3034      C3035   1.404       .  A
C3034      H3043   1.083       .  S
C3035      C3036   1.409       .  A
C3036      H3044   1.084       .  S
C3045      C3046   1.402       .  A
C3045      C3050   1.402       .  A
C3046      C3047   1.397       .  A
C3046      H3059   1.083       .  S
C3047      C3048   1.414       .  A
C3047      H3060   1.077       .  S
C3048      C3054   1.430       .  A
C3048      C3049   1.422       .  A
C3049      C3051   1.399       .  A
C3049      C3050   1.403       .  A
C3050      H3061   1.084       .  S
C3051      C3052   1.388       .  A
C3051      H3062   1.084       .  S
C3052      C3053   1.399       .  A
C3052      H3063   1.084   1_655  S
C3053      C3054   1.421       .  A
C3053      C3058   1.402       .  A
C3054      C3055   1.416       .  A
C3055      C3056   1.398   1_554  A
C3055      H3064   1.077   1_554  S
C3056      C3057   1.402       .  A
C3056      H3065   1.083       .  S
C3057      C3058   1.403   1_556  A
C3058      H3066   1.084   1_655  S
C3067      C3068   1.401       .  A
C3067      C3072   1.404       .  A
C3068      C3069   1.392       .  A
C3068      H3081   1.084       .  S
C3069      C3070   1.412       .  A
C3069      H3082   1.077       .  S
C3070      C3076   1.430       .  A
C3070      C3071   1.424       .  A
C3071      C3073   1.401       .  A
C3071      C3072   1.412       .  A
C3072      H3083   1.084       .  S
C3073      C3074   1.393       .  A
C3073      H3084   1.084       .  S
C3074      C3075   1.401       .  A
C3074      H3085   1.084       .  S
C3075      C3076   1.422       .  A
C3075      C3080   1.409       .  A
C3076      C3077   1.416       .  A
C3077      C3078   1.395       .  A
C3077      H3086   1.077       .  S
C3078      C3079   1.396       .  A
C3078      H3087   1.084       .  S
C3079      C3080   1.400       .  A
C3080      H3088   1.085       .  S
C3089      C3090   1.401       .  A
C3089      C3094   1.398       .  A
C3090      C3091   1.402       .  A
C3090      H3103   1.083       .  S
C3091      C3092   1.417       .  A
C3091      H3104   1.078       .  S
C3092      C3098   1.433       .  A
C3092      C3093   1.423       .  A
C3093      C3095   1.398       .  A
C3093      C3094   1.402       .  A
C3094      H3105   1.085       .  S
C3095      C3096   1.386       .  A
C3095      H3106   1.084       .  S
C3096      C3097   1.398       .  A
C3096      H3107   1.084       .  S
C3097      C3098   1.421       .  A
C3097      C3102   1.401       .  A
C3098      C3099   1.417       .  A
C3099      C3100   1.403   1_655  A
C3099      H3108   1.078       .  S
C3100      C3101   1.404   1_455  A
C3100      H3109   1.083       .  S
C3101      C3102   1.403       .  A
C3102      H3110   1.084       .  S
C3111      C3112   1.402       .  A
C3111      C3116   1.402       .  A
C3112      C3113   1.401       .  A
C3112      H3125   1.083       .  S
C3113      C3114   1.416       .  A
C3113      H3126   1.078       .  S
C3114      C3120   1.432       .  A
C3114      C3115   1.422       .  A
C3115      C3117   1.399       .  A
C3115      C3116   1.402       .  A
C3116      H3127   1.084       .  S
C3117      C3118   1.387       .  A
C3117      H3128   1.084       .  S
C3118      C3119   1.398       .  A
C3118      H3129   1.084       .  S
C3119      C3120   1.424       .  A
C3119      C3124   1.402       .  A
C3120      C3121   1.417       .  A
C3121      C3122   1.401       .  A
C3121      H3130   1.078       .  S
C3122      C3123   1.398       .  A
C3122      H3131   1.083       .  S
C3123      C3124   1.396       .  A
C3124      H3132   1.085       .  S
C3133      C3134   1.403       .  A
C3133      C3138   1.405       .  A
C3134      C3135   1.395       .  A
C3134      H3147   1.083   1_554  S
C3135      C3136   1.413       .  A
C3135      H3148   1.077       .  S
C3136      C3142   1.433       .  A
C3136      C3137   1.423       .  A
C3137      C3139   1.401       .  A
C3137      C3138   1.413       .  A
C3138      H3149   1.084       .  S
C3139      C3140   1.394       .  A
C3139      H3150   1.084       .  S
C3140      C3141   1.401       .  A
C3140      H3151   1.084       .  S
C3141      C3142   1.422       .  A
C3141      C3146   1.411       .  A
C3142      C3143   1.415       .  A
C3143      C3144   1.396       .  A
C3143      H3152   1.077       .  S
C3144      C3145   1.402       .  A
C3144      H3153   1.083       .  S
C3145      C3146   1.406       .  A
C3146      H3154   1.084       .  S
C3155      C3156   1.397       .  A
C3155      C3160   1.396       .  A
C3156      C3157   1.397       .  A
C3156      H3169   1.084       .  S
C3157      C3158   1.416       .  A
C3157      H3170   1.078       .  S
C3158      C3164   1.431       .  A
C3158      C3159   1.424       .  A
C3159      C3161   1.398       .  A
C3159      C3160   1.404       .  A
C3160      H3171   1.085       .  S
C3161      C3162   1.389       .  A
C3161      H3172   1.084       .  S
C3162      C3163   1.399       .  A
C3162      H3173   1.084       .  S
C3163      C3164   1.422       .  A
C3163      C3168   1.404       .  A
C3164      C3165   1.416       .  A
C3165      C3166   1.398       .  A
C3165      H3174   1.078       .  S
C3166      C3167   1.401       .  A
C3166      H3175   1.083       .  S
C3167      C3168   1.402       .  A
C3168      H3176   1.084       .  S
C3177      C3178   1.399       .  A
C3177      C3182   1.404       .  A
C3178      C3179   1.393       .  A
C3178      H3191   1.083       .  S
C3179      C3180   1.414       .  A
C3179      H3192   1.077       .  S
C3180      C3186   1.427       .  A
C3180      C3181   1.421       .  A
C3181      C3183   1.400       .  A
C3181      C3182   1.405       .  A
C3182      H3193   1.084       .  S
C3183      C3184   1.391       .  A
C3183      H3194   1.084       .  S
C3184      C3185   1.400       .  A
C3184      H3195   1.084       .  S
C3185      C3186   1.422       .  A
C3185      C3190   1.406       .  A
C3186      C3187   1.413       .  A
C3187      C3188   1.392       .  A
C3187      H3196   1.076       .  S
C3188      C3189   1.400       .  A
C3188      H3197   1.083       .  S
C3189      C3190   1.403       .  A
C3190      H3198   1.084       .  S
C3199      C3200   1.396       .  A
C3199      C3204   1.399       .  A
C3200      C3201   1.398       .  A
C3200      H3213   1.084       .  S
C3201      C3202   1.418       .  A
C3201      H3214   1.077       .  S
C3202      C3208   1.431       .  A
C3202      C3203   1.422       .  A
C3203      C3205   1.400       .  A
C3203      C3204   1.406       .  A
C3204      H3215   1.085       .  S
C3205      C3206   1.392       .  A
C3205      H3216   1.084       .  S
C3206      C3207   1.399       .  A
C3206      H3217   1.084       .  S
C3207      C3208   1.425       .  A
C3207      C3212   1.410       .  A
C3208      C3209   1.413       .  A
C3209      C3210   1.394       .  A
C3209      H3218   1.077       .  S
C3210      C3211   1.401       .  A
C3210      H3219   1.084       .  S
C3211      C3212   1.400       .  A
C3212      H3220   1.084       .  S
C3221      C3222   1.403       .  A
C3221      C3226   1.405       .  A
C3222      C3223   1.409       .  A
C3222      H3235   1.083       .  S
C3223      C3224   1.420       .  A
C3223      H3236   1.078       .  S
C3224      C3230   1.438       .  A
C3224      C3225   1.421       .  A
C3225      C3227   1.399       .  A
C3225      C3226   1.402       .  A
C3226      H3237   1.085       .  S
C3227      C3228   1.386       .  A
C3227      H3238   1.084       .  S
C3228      C3229   1.397       .  A
C3228      H3239   1.084       .  S
C3229      C3230   1.425       .  A
C3229      C3234   1.404       .  A
C3230      C3231   1.418       .  A
C3231      C3232   1.405       .  A
C3231      H3240   1.078       .  S
C3232      C3233   1.401   1_655  A
C3232      H3241   1.083   1_655  S
C3233      C3234   1.398   1_455  A
C3234      H3242   1.085       .  S
C3243      C3244   1.401       .  A
C3243      C3248   1.401       .  A
C3244      C3245   1.395       .  A
C3244      H3257   1.084       .  S
C3245      C3246   1.413       .  A
C3245      H3258   1.077       .  S
C3246      C3252   1.432       .  A
C3246      C3247   1.424       .  A
C3247      C3249   1.400       .  A
C3247      C3248   1.411       .  A
C3248      H3259   1.084       .  S
C3249      C3250   1.393       .  A
C3249      H3260   1.084       .  S
C3250      C3251   1.401       .  A
C3250      H3261   1.084       .  S
C3251      C3252   1.422       .  A
C3251      C3256   1.409       .  A
C3252      C3253   1.417       .  A
C3253      C3254   1.398       .  A
C3253      H3262   1.077       .  S
C3254      C3255   1.397       .  A
C3254      H3263   1.084       .  S
C3255      C3256   1.401       .  A
C3256      H3264   1.085       .  S
C3265      C3266   1.406       .  A
C3265      C3270   1.403       .  A
C3266      C3267   1.398       .  A
C3266      H3279   1.083       .  S
C3267      C3268   1.413       .  A
C3267      H3280   1.078       .  S
C3268      C3274   1.434       .  A
C3268      C3269   1.424       .  A
C3269      C3271   1.399       .  A
C3269      C3270   1.409       .  A
C3270      H3281   1.084       .  S
C3271      C3272   1.390       .  A
C3271      H3282   1.084       .  S
C3272      C3273   1.400       .  A
C3272      H3283   1.084       .  S
C3273      C3274   1.421       .  A
C3273      C3278   1.406       .  A
C3274      C3275   1.417       .  A
C3275      C3276   1.402       .  A
C3275      H3284   1.077       .  S
C3276      C3277   1.402       .  A
C3276      H3285   1.083       .  S
C3277      C3278   1.406       .  A
C3278      H3286   1.084       .  S
C3287      C3288   1.401       .  A
C3287      C3292   1.403       .  A
C3288      C3289   1.396       .  A
C3288      H3301   1.083       .  S
C3289      C3290   1.415       .  A
C3289      H3302   1.077       .  S
C3290      C3296   1.429       .  A
C3290      C3291   1.422       .  A
C3291      C3293   1.399       .  A
C3291      C3292   1.404       .  A
C3292      H3303   1.084       .  S
C3293      C3294   1.389       .  A
C3293      H3304   1.084       .  S
C3294      C3295   1.399       .  A
C3294      H3305   1.084       .  S
C3295      C3296   1.422       .  A
C3295      C3300   1.404       .  A
C3296      C3297   1.414       .  A
C3297      C3298   1.395       .  A
C3297      H3306   1.077       .  S
C3298      C3299   1.402       .  A
C3298      H3307   1.083       .  S
C3299      C3300   1.404       .  A
C3300      H3308   1.084       .  S
C3309      C3310   1.400       .  A
C3309      C3314   1.397       .  A
C3310      C3311   1.397       .  A
C3310      H3323   1.084       .  S
C3311      C3312   1.414       .  A
C3311      H3324   1.077       .  S
C3312      C3318   1.432       .  A
C3312      C3313   1.426       .  A
C3313      C3315   1.399       .  A
C3313      C3314   1.409       .  A
C3314      H3325   1.085       .  S
C3315      C3316   1.390       .  A
C3315      H3326   1.084       .  S
C3316      C3317   1.400       .  A
C3316      H3327   1.084       .  S
C3317      C3318   1.421       .  A
C3317      C3322   1.403       .  A
C3318      C3319   1.419       .  A
C3319      C3320   1.402       .  A
C3319      H3328   1.078       .  S
C3320      C3321   1.399       .  A
C3320      H3329   1.083       .  S
C3321      C3322   1.402       .  A
C3322      H3330   1.085       .  S
C3331      C3332   1.402       .  A
C3331      C3336   1.405       .  A
C3332      C3333   1.394       .  A
C3332      H3345   1.083       .  S
C3333      C3334   1.414       .  A
C3333      H3346   1.077       .  S
C3334      C3340   1.430       .  A
C3334      C3335   1.422       .  A
C3335      C3337   1.401       .  A
C3335      C3336   1.410       .  A
C3336      H3347   1.084       .  S
C3337      C3338   1.393       .  A
C3337      H3348   1.084       .  S
C3338      C3339   1.400       .  A
C3338      H3349   1.084       .  S
C3339      C3340   1.423       .  A
C3339      C3344   1.411       .  A
C3340      C3341   1.413       .  A
C3341      C3342   1.393       .  A
C3341      H3350   1.077       .  S
C3342      C3343   1.401       .  A
C3342      H3351   1.084       .  S
C3343      C3344   1.403       .  A
C3344      H3352   1.084       .  S
C3353      C3354   1.403       .  A
C3353      C3358   1.404       .  A
C3354      C3355   1.405       .  A
C3354      H3367   1.083       .  S
C3355      C3356   1.418       .  A
C3355      H3368   1.078       .  S
C3356      C3362   1.436       .  A
C3356      C3357   1.421       .  A
C3357      C3359   1.399       .  A
C3357      C3358   1.402       .  A
C3358      H3369   1.084       .  S
C3359      C3360   1.387       .  A
C3359      H3370   1.084       .  S
C3360      C3361   1.398       .  A
C3360      H3371   1.084       .  S
C3361      C3362   1.423       .  A
C3361      C3366   1.403       .  A
C3362      C3363   1.417       .  A
C3363      C3364   1.403       .  A
C3363      H3372   1.078       .  S
C3364      C3365   1.403       .  A
C3364      H3373   1.083       .  S
C3365      C3366   1.402       .  A
C3366      H3374   1.085       .  S
C3375      C3376   1.403       .  A
C3375      C3380   1.402       .  A
C3376      C3377   1.394       .  A
C3376      H3389   1.083       .  S
C3377      C3378   1.412       .  A
C3377      H3390   1.078       .  S
C3378      C3384   1.427       .  A
C3378      C3379   1.422       .  A
C3379      C3381   1.399       .  A
C3379      C3380   1.405       .  A
C3380      H3391   1.084       .  S
C3381      C3382   1.390       .  A
C3381      H3392   1.084       .  S
C3382      C3383   1.400       .  A
C3382      H3393   1.084       .  S
C3383      C3384   1.421       .  A
C3383      C3388   1.403       .  A
C3384      C3385   1.415       .  A
C3385      C3386   1.396       .  A
C3385      H3394   1.077       .  S
C3386      C3387   1.401       .  A
C3386      H3395   1.083       .  S
C3387      C3388   1.404       .  A
C3388      H3396   1.084       .  S
C3397      C3398   1.399       .  A
C3397      C3402   1.398       .  A
C3398      C3399   1.401       .  A
C3398      H3411   1.083       .  S
C3399      C3400   1.417       .  A
C3399      H3412   1.078       .  S
C3400      C3406   1.433       .  A
C3400      C3401   1.423       .  A
C3401      C3403   1.398       .  A
C3401      C3402   1.404       .  A
C3402      H3413   1.085       .  S
C3403      C3404   1.389       .  A
C3403      H3414   1.084       .  S
C3404      C3405   1.400       .  A
C3404      H3415   1.084       .  S
C3405      C3406   1.421       .  A
C3405      C3410   1.404       .  A
C3406      C3407   1.415       .  A
C3407      C3408   1.401       .  A
C3407      H3416   1.078       .  S
C3408      C3409   1.404       .  A
C3408      H3417   1.082       .  S
C3409      C3410   1.407       .  A
C3410      H3418   1.083       .  S
C3419      C3420   1.399       .  A
C3419      C3424   1.404       .  A
C3420      C3421   1.397       .  A
C3420      H3433   1.083       .  S
C3421      C3422   1.417       .  A
C3421      H3434   1.077       .  S
C3422      C3428   1.430       .  A
C3422      C3423   1.421       .  A
C3423      C3425   1.400       .  A
C3423      C3424   1.404       .  A
C3424      H3435   1.084       .  S
C3425      C3426   1.391       .  A
C3425      H3436   1.084       .  S
C3426      C3427   1.399       .  A
C3426      H3437   1.084       .  S
C3427      C3428   1.424       .  A
C3427      C3432   1.408       .  A
C3428      C3429   1.412       .  A
C3429      C3430   1.394       .  A
C3429      H3438   1.077       .  S
C3430      C3431   1.402       .  A
C3430      H3439   1.083       .  S
C3431      C3432   1.402       .  A
C3432      H3440   1.084       .  S
