geometry optimzed in LAMMPS
_audit_creation_date              2020-11-30 
_audit_creation_method            'lammps2cif' 
_symmetry_space_group_name_H-M    'P1' 
_symmetry_Int_Tables_number       1 
_symmetry_cell_setting            triclinic 
loop_ 
_symmetry_equiv_pos_as_xyz 
  x,y,z 
_cell_length_a                    38.44683458 
_cell_length_b                    22.934809244903313 
_cell_length_c                    41.892833872467286 
_cell_angle_alpha                 89.99794701024234 
_cell_angle_beta                  98.37213575129455 
_cell_angle_gamma                 90.00118477215773 
loop_ 
_atom_site_label 
_atom_site_type_symbol 
_atom_site_fract_x 
_atom_site_fract_y 
_atom_site_fract_z 
_atom_site_charge 
C1          C  0.24406104  0.12713485  0.22949918    -0.01500
C2          C  0.25105629  0.38218897  0.48310619    -0.01500
O3          O  0.10651129  0.25879310  0.20772225    -0.56900
C4          C  0.21195992  0.16482758  0.23190916     0.75800
O5          O  0.20124690  0.34216409  0.25719651    -0.58000
C6          C  0.08620463  0.27147273  0.22812337     0.75700
C7          C  0.19378185  0.24974753  0.31102686     0.78100
Cd8        Cd  0.16616083  0.25459977  0.24593431     1.37500
O9          O  0.20132095  0.20260365  0.21057214    -0.56900
O10         O  0.18041688  0.20434470  0.29672862    -0.55700
C11         C  0.21956586  0.33472409  0.23463262     0.78100
O12         O  0.19011859  0.29790757  0.29607593    -0.58000
O13         O  0.19440930  0.16033904  0.25527773    -0.56500
O14         O  0.10189887  0.27490188  0.25677274    -0.56500
O15         O  0.20812968  0.29728169  0.21342824    -0.55700
C16         C  0.04606425  0.28489977  0.21803693    -0.01500
C17         C  0.48420193  0.37770987  0.01783199     0.87400
C18         C  0.45711425  0.42579770  0.00484038    -0.52800
C19         C  0.47036901  0.48242854  0.00648770     0.10400
C20         C  0.51004655  0.48343177  0.02169985     0.21300
C21         C  0.51497812  0.38619324  0.99922749    -0.53500
C22         C  0.02789689  0.44419214  0.99649579     0.10500
C23         C  0.49778779  0.39614766  0.05150613    -0.53100
C24         C  0.01149493  0.45175327  0.05314417     0.11000
H25         H  0.43054944  0.41501062  0.99415723     0.15600
H26         H  0.02004088  0.02784189  0.02270520     0.01300
H27         H  0.52334079  0.35005337  0.98540415     0.15900
H28         H  0.49659891  0.36737884  0.07214528     0.15600
O29         O  0.09679952  0.98947995  0.18019978    -0.56900
C30         C  0.02167517  0.46799543  0.08771690     0.75800
O31         O  0.01487806  0.35886403  0.17964465    -0.58000
C32         C  0.11269313  0.96422758  0.15965642     0.75700
C33         C  0.02305822  0.06161451  0.18828704     0.78100
Cd34       Cd  0.04229483  0.45354391  0.15872081     1.37500
O35         O  0.05309963  0.47605715  0.10025935    -0.56900
O36         O  0.05467627  0.04827783  0.18737530    -0.55700
C37         C  0.04359991  0.33646806  0.19318420     0.78100
O38         O  0.00085497  0.02151159  0.17949473    -0.58000
O39         O  0.50053193  0.45914353  0.10963415    -0.56500
O40         O  0.09552519  0.93226470  0.13817212    -0.56500
O41         O  0.07030949  0.36583408  0.18913261    -0.55700
O42         O  0.21328737  0.40891628  0.18640537    -0.56900
C43         C  0.14937101  0.97297960  0.16045902     0.75800
O44         O  0.26027043  0.05196611  0.19430683    -0.58000
C45         C  0.24370683  0.40958925  0.20255554     0.75700
C46         C  0.21071813  0.50377879  0.09319796     0.78100
Cd47       Cd  0.21912792  0.99453406  0.15991119     1.37500
O48         O  0.16791778  0.43766935  0.15262356    -0.56900
O49         O  0.22413789  0.45828042  0.10696930    -0.55700
C50         C  0.23670001  0.08666957  0.20130700     0.78100
O51         O  0.20978919  0.05060294  0.11155671    -0.58000
O52         O  0.16495224  0.01308502  0.17764285    -0.56500
O53         O  0.26565816  0.44605942  0.19424364    -0.56500
O54         O  0.20633065  0.08308692  0.18500616    -0.55700
O55         O  0.38958581  0.00472577  0.49959701    -0.56900
C56         C  0.28291593  0.42001585  0.48023872     0.75800
O57         O  0.29384547  0.09450008  0.45363864    -0.58000
C58         C  0.40837270  0.02387764  0.47928214     0.75700
C59         C  0.29971004  0.99590375  0.39979043     0.78100
Cd60       Cd  0.32876073  0.00679167  0.46419273     1.37500
O61         O  0.29300612  0.45923242  0.50090477    -0.56900
O62         O  0.31443637  0.45365537  0.41666858    -0.55700
C63         C  0.27689994  0.08868484  0.47728622     0.78100
O64         O  0.30204295  0.04499907  0.41379478    -0.58000
O65         O  0.30114843  0.41356077  0.45747971    -0.56500
O66         O  0.39115205  0.03458574  0.45182469    -0.56500
O67         O  0.28894287  0.05153424  0.49844869    -0.55700
C68         C  0.44847841  0.03704849  0.48859724    -0.01500
C69         C  0.01146854  0.12480324  0.19107283     0.87400
C70         C  0.03860343  0.17262340  0.20481316    -0.52800
C71         C  0.02567083  0.22955867  0.20291006     0.10400
C72         C  0.48806737  0.23087839  0.18822571     0.21300
C73         C  0.97981498  0.13364616  0.20865949    -0.53500
C74         C  0.46862569  0.19039179  0.21027070     0.10500
C75         C  0.99907743  0.14390157  0.15731825    -0.53100
C76         C  0.48857834  0.19830240  0.15508994     0.11000
H77         H  0.06504900  0.16162062  0.21577963     0.15600
H78         H  0.47638895  0.27502034  0.18549822     0.01300
H79         H  0.47124740  0.09755277  0.22261044     0.15900
H80         H  0.00071071  0.11527631  0.13671355     0.15600
O81         O  0.39921497  0.24049849  0.02710580    -0.56900
C82         C  0.47772078  0.21502059  0.12082343     0.75800
O83         O  0.48110407  0.10959549  0.03027006    -0.58000
C84         C  0.38412035  0.21967794  0.04952611     0.75700
C85         C  0.47235375  0.31495037  0.02054837     0.78100
Cd86       Cd  0.45422790  0.20474692  0.05051219     1.37500
O87         O  0.44600735  0.22286658  0.10922071    -0.56900
O88         O  0.44128160  0.30282199  0.02429956    -0.55700
C89         C  0.45239881  0.08829971  0.01610949     0.78100
O90         O  0.49449067  0.27385323  0.02692056    -0.58000
O91         O  0.49854149  0.20722676  0.10025969    -0.56500
O92         O  0.40187846  0.19040940  0.07188617    -0.56500
O93         O  0.42577613  0.11825994  0.01979045    -0.55700
O94         O  0.33099012  0.19974679  0.06788334    -0.56900
C95         C  0.25295664  0.16337394  0.00948564     0.75800
O96         O  0.28742553  0.30458039  0.10116315    -0.58000
C97         C  0.34767648  0.22980672  0.04993671     0.75700
C98         C  0.25921969  0.34111525  0.01112455     0.78100
Cd99       Cd  0.27777042  0.25048653  0.05234864     1.37500
O100        O  0.28269200  0.16089391  0.02680869    -0.56900
O101        O  0.28946833  0.34145534  0.52814464    -0.55700
C102        C  0.28356536  0.25938885  0.11750101     0.78100
O103        O  0.23579387  0.30678101  0.01875024    -0.58000
O104        O  0.23148397  0.20166459  0.01660899    -0.56500
O105        O  0.33156220  0.26928156  0.03266540    -0.56500
O106        O  0.26686744  0.21658404  0.10358734    -0.55700
C107        C  0.24486012  0.12596836  0.48084071    -0.01500
C108        C  0.25202738  0.37143485  0.23178494    -0.01500
O109        O  0.10551797  0.49470811  0.45916518    -0.56900
C110        C  0.21256794  0.08782865  0.98288562     0.75800
O111        O  0.18776312  0.45312214  0.04601059    -0.58000
C112        C  0.08567154  0.47888269  0.47935298     0.75700
C113        C  0.21842704  0.41830065  0.48595500     0.78100
Cd114      Cd  0.16529282  0.49611419  0.99571084     1.37500
O115        O  0.20202393  0.05094828  0.46162350    -0.56900
O116        O  0.20557623  0.45325485  0.46388545    -0.55700
C117        C  0.19301754  0.50170633  0.06036214     0.78100
O118        O  0.20130870  0.41025464  0.00826788    -0.58000
O119        O  0.19428142  0.09385816  0.00566366    -0.56500
O120        O  0.10141345  0.47409420  0.00608349    -0.56500
O121        O  0.18040364  0.04963691  0.04738627    -0.55700
C122        C  0.04572419  0.46525364  0.46919720    -0.01500
C123        C  0.48560895  0.37277733  0.26686017     0.87400
C124        C  0.51793623  0.36326724  0.25036195    -0.52800
C125        C  0.02823271  0.30637504  0.24778548     0.10400
C126        C  0.50980924  0.26588509  0.27120930     0.21300
C127        C  0.45841913  0.32557466  0.25222715    -0.53500
C128        C  0.47080082  0.26822314  0.25458012     0.10500
C129        C  0.49661616  0.35303912  0.30072454    -0.53100
C130        C  0.01013491  0.29863662  0.30392066     0.11000
H131        H  0.02561853  0.39928994  0.23592326     0.15600
H132        H  0.02148234  0.22144607  0.27307931     0.01300
H133        H  0.43235908  0.33721993  0.24053384     0.15900
H134        H  0.49468850  0.38145944  0.32135501     0.15600
O135        O  0.09372640  0.24396636  0.42634251    -0.56900
C136        C  0.02060006  0.28268919  0.33850814     0.75800
O137        O  0.99855812  0.22822096  0.42911488    -0.58000
C138        C  0.11168828  0.27966689  0.41243484     0.75700
C139        C  0.04350978  0.41356644  0.44446292     0.78100
Cd140      Cd  0.04143664  0.29657678  0.40970134     1.37500
O141        O  0.05227708  0.27843764  0.35111192    -0.56900
O142        O  0.06985720  0.38194756  0.44216681    -0.55700
C143        C  0.02072989  0.18959837  0.44044905     0.78100
O144        O  0.01493753  0.39298416  0.42952607    -0.58000
O145        O  0.49813598  0.29077657  0.35866339    -0.56500
O146        O  0.09650550  0.32257506  0.39726648    -0.56500
O147        O  0.05255292  0.20459954  0.44312805    -0.55700
O148        O  0.16703134  0.31219439  0.40428452    -0.56900
C149        C  0.24277510  0.34314817  0.45416052     0.75800
O150        O  0.26099351  0.19999425  0.44473426    -0.58000
C151        C  0.14847619  0.27155775  0.41321216     0.75700
C152        C  0.21068880  0.24782664  0.34419202     0.78100
Cd153      Cd  0.21856952  0.25593514  0.41044127     1.37500
O154        O  0.21209623  0.34216569  0.43850020    -0.56900
O155        O  0.22496925  0.29276107  0.35795406    -0.55700
C156        C  0.23738832  0.16620977  0.45262111     0.78100
O157        O  0.20937070  0.20236369  0.36090464    -0.56400
O158        O  0.26505466  0.30753777  0.44560561    -0.56500
O159        O  0.16301388  0.22371796  0.42221265    -0.56500
O160        O  0.20672561  0.17008139  0.43699868    -0.55700
C161        C  0.45022841  0.21292487  0.23952306    -0.01500
O162        O  0.39105393  0.24589562  0.24990804    -0.56900
C163        C  0.28415302  0.33389421  0.22911107     0.75800
O164        O  0.30235518  0.20566801  0.16452990    -0.58000
C165        C  0.41005285  0.22660833  0.22976424     0.75700
C166        C  0.27660298  0.16368846  0.22635161     0.78100
Cd167      Cd  0.32979671  0.24423594  0.21441663     1.37500
O168        O  0.29508668  0.29603512  0.25033580    -0.56900
O169        O  0.28889485  0.20020183  0.24780756    -0.55700
C170        C  0.30097126  0.25447278  0.15025439     0.78100
O171        O  0.29402014  0.15723048  0.20305860    -0.58000
O172        O  0.30143189  0.33862640  0.20558088    -0.56500
O173        O  0.39285642  0.21571207  0.20231130    -0.56500
O174        O  0.31727976  0.29738586  0.16468564    -0.55700
C175        C  0.00962726  0.12627215  0.44291870     0.87400
C176        C  0.97827117  0.11679338  0.46059997    -0.52800
C177        C  0.46575734  0.05885576  0.45857626     0.10400
C178        C  0.48534260  0.01841713  0.43644295     0.21300
C179        C  0.03711089  0.07890769  0.45644656    -0.53500
C180        C  0.02455971  0.02178997  0.45429660     0.10500
C181        C  0.99718211  0.10726478  0.40909588    -0.53100
C182        C  0.48573985  0.05089093  0.40310997     0.11000
H183        H  0.46714595  0.15174835  0.47014224     0.15600
H184        H  0.47334813  0.47584741  0.43522765     0.01300
H185        H  0.06349239  0.09030152  0.46740982     0.15900
H186        H  0.99867234  0.13608705  0.38856365     0.15600
O187        O  0.44578871  0.01756083  0.35656322    -0.56900
C188        C  0.38400410  0.53077288  0.29927894     0.75800
O189        O  0.48049296  0.14092620  0.27920608    -0.58000
C190        C  0.47617268  0.03378082  0.36854693     0.75700
C191        C  0.47484488  0.43645742  0.26948083     0.78100
Cd192      Cd  0.45346872  0.04511027  0.29801376     1.37500
O193        O  0.40012672  0.50078052  0.28072285    -0.56900
O194        O  0.44315863  0.45230593  0.26621770    -0.55700
C195        C  0.45204062  0.16179669  0.26430322     0.78100
O196        O  0.49705198  0.47461084  0.28139383    -0.58000
O197        O  0.40071721  0.56881528  0.31736248    -0.56500
O198        O  0.49610517  0.04831753  0.34819841    -0.56500
O199        O  0.42546044  0.13062037  0.26644702    -0.55700
O200        O  0.32954234  0.05532495  0.31486577    -0.56900
C201        C  0.25221391  0.08920765  0.25878508     0.75800
O202        O  0.23606896  0.44600856  0.26756154    -0.58000
C203        C  0.34760906  0.52108009  0.30015158     0.75700
C204        C  0.28414557  0.49345975  0.36842223     0.78100
Cd205      Cd  0.27782935  0.50110970  0.30283854     1.37500
O206        O  0.28271022  0.08914383  0.27469996    -0.56900
O207        O  0.26617175  0.03391432  0.35281872    -0.55700
C208        C  0.25940184  0.41098458  0.26040190     0.78100
O209        O  0.28769496  0.44806001  0.35218622    -0.58000
O210        O  0.23013660  0.05294657  0.26705526    -0.56500
O211        O  0.33232747  0.47700181  0.28650680    -0.56500
O212        O  0.28955287  0.41288932  0.27723677    -0.55700
C213        C  0.24382102  0.12558107  0.72942222    -0.01500
C214        C  0.25157915  0.38033252  0.98248892    -0.01500
O215        O  0.10749329  0.25490324  0.70913054    -0.56900
C216        C  0.21177484  0.16300423  0.73219485     0.75800
O217        O  0.20203506  0.34101424  0.75767380    -0.58000
C218        C  0.08751391  0.27051194  0.72924800     0.75700
C219        C  0.19625105  0.24556630  0.81135824     0.78100
Cd220      Cd  0.16708122  0.25303984  0.74682917     1.37500
O221        O  0.20157287  0.20176836  0.71129867    -0.56900
O222        O  0.18239240  0.20061370  0.79697620    -0.55700
C223        C  0.22006877  0.33374190  0.73488920     0.78100
O224        O  0.19217461  0.29416897  0.79692260    -0.58000
O225        O  0.19401968  0.15764891  0.75537044    -0.56500
O226        O  0.10341842  0.27681679  0.75767609    -0.56500
O227        O  0.20861714  0.29595857  0.71388784    -0.55700
C228        C  0.04750659  0.28407500  0.71892612    -0.01500
C229        C  0.48402505  0.37814694  0.51629823     0.87400
C230        C  0.45659389  0.42601050  0.50355579    -0.52800
C231        C  0.46953083  0.48291927  0.50551460     0.10400
C232        C  0.50917189  0.48437443  0.52047979     0.21300
C233        C  0.51470513  0.38745433  0.49776566    -0.53500
C234        C  0.02786045  0.44390485  0.49882936     0.10500
C235        C  0.49749853  0.39641301  0.54998386    -0.53100
C236        C  0.01070461  0.45216733  0.55520003     0.11000
H237        H  0.43004017  0.41499942  0.49292163     0.15600
H238        H  0.02089457  0.02897113  0.52405383     0.01300
H239        H  0.52351327  0.35148323  0.48409608     0.15900
H240        H  0.49643566  0.36736689  0.57052811     0.15600
O241        O  0.09821969  0.98901401  0.68240205    -0.56900
C242        C  0.02170792  0.46802738  0.58976820     0.75800
O243        O  0.01649623  0.35752005  0.68042882    -0.58000
C244        C  0.11375060  0.96462295  0.66129287     0.75700
C245        C  0.02464206  0.06156837  0.68976651     0.78100
Cd246      Cd  0.04366565  0.45262462  0.66051900     1.37500
O247        O  0.05337218  0.47551969  0.60182530    -0.56900
O248        O  0.05614594  0.04884873  0.68784821    -0.55700
C249        C  0.04520863  0.33516590  0.69397729     0.78100
O250        O  0.00252478  0.02088012  0.68208204    -0.58000
O251        O  0.49951347  0.45590293  0.60825952    -0.56500
O252        O  0.09638582  0.93298876  0.63978907    -0.56500
O253        O  0.07195576  0.36447596  0.69006690    -0.55700
O254        O  0.21454249  0.40586448  0.68536599    -0.56900
C255        C  0.15019694  0.97395920  0.66123053     0.75800
O256        O  0.26032900  0.05281719  0.69304681    -0.58000
C257        C  0.24456267  0.40773369  0.70223466     0.75700
C258        C  0.21050750  0.50828799  0.59456097     0.78100
Cd259      Cd  0.21953093  0.99507667  0.65909392     1.37500
O260        O  0.16843077  0.43831774  0.65176561    -0.56900
O261        O  0.22712631  0.46461574  0.60749958    -0.55700
C262        C  0.23645290  0.08611103  0.70085775     0.78100
O263        O  0.20963848  0.05214421  0.61087530    -0.58000
O264        O  0.16634889  0.01275286  0.67898358    -0.56500
O265        O  0.26641939  0.44492062  0.69445498    -0.56500
O266        O  0.20588970  0.08207414  0.68494534    -0.55700
O267        O  0.39072896  0.00435842  0.00071455    -0.56900
C268        C  0.28351759  0.41839294  0.98032866     0.75800
O269        O  0.29407145  0.09460693  0.95330726    -0.58000
C270        C  0.40987556  0.02476940  0.98102290     0.75700
C271        C  0.30225977  0.99899306  0.89994564     0.78100
Cd272      Cd  0.33005688  0.00864397  0.96464871     1.37500
O273        O  0.29294847  0.45784059  0.00107471    -0.56900
O274        O  0.31537674  0.45147191  0.91717603    -0.55700
C275        C  0.27724033  0.08878514  0.97703557     0.78100
O276        O  0.30487029  0.04809898  0.91396369    -0.58000
O277        O  0.30242714  0.41196216  0.95808179    -0.56500
O278        O  0.39290213  0.03763942  0.95376102    -0.56500
O279        O  0.29003129  0.05299164  0.99867318    -0.55700
C280        C  0.45001452  0.03757320  0.99091460    -0.01500
C281        C  0.01285214  0.12460115  0.69220203     0.87400
C282        C  0.03994942  0.17216128  0.70592697    -0.52800
C283        C  0.02705876  0.22900885  0.70389385     0.10400
C284        C  0.48617086  0.23012685  0.68669172     0.21300
C285        C  0.98122797  0.13365983  0.70982961    -0.53500
C286        C  0.46720082  0.18961735  0.70938766     0.10500
C287        C  0.00050033  0.14369049  0.65833873    -0.53100
C288        C  0.48621487  0.19711513  0.65339665     0.11000
H289        H  0.06633604  0.16102980  0.71701602     0.15600
H290        H  0.47455565  0.27434292  0.68405632     0.01300
H291        H  0.46959415  0.09676419  0.72131755     0.15900
H292        H  0.00205672  0.11515260  0.63769439     0.15600
O293        O  0.39812914  0.23939442  0.52400024    -0.56900
C294        C  0.47638878  0.21377445  0.61877736     0.75800
O295        O  0.48014120  0.11079041  0.52646165    -0.58000
C296        C  0.38398626  0.22284533  0.54797290     0.75700
C297        C  0.47285096  0.31495937  0.51879804     0.78100
Cd298      Cd  0.45363759  0.20491843  0.54794770     1.37500
O299        O  0.44558463  0.22770255  0.60679750    -0.56900
O300        O  0.44119323  0.30063761  0.51833545    -0.55700
C301        C  0.45126062  0.08801849  0.51373639     0.78100
O302        O  0.49529562  0.27553077  0.52815104    -0.58000
O303        O  0.49671379  0.20112345  0.59837765    -0.56500
O304        O  0.40237695  0.19628872  0.57103495    -0.56500
O305        O  0.42458726  0.11646152  0.51895904    -0.55700
O306        O  0.33230461  0.20702917  0.56941745    -0.56900
C307        C  0.25338918  0.16381601  0.51016267     0.75800
O308        O  0.28606399  0.30487303  0.60237350    -0.58000
C309        C  0.34782853  0.23392878  0.54932843     0.75700
C310        C  0.25895852  0.34351598  0.51193475     0.78100
Cd311      Cd  0.27786328  0.25239801  0.55269800     1.37500
O312        O  0.28379507  0.16321463  0.52633042    -0.56900
O313        O  0.28975531  0.33841930  0.02726781    -0.55700
C314        C  0.28270350  0.25887707  0.61823679     0.78100
O315        O  0.23569530  0.30899767  0.51968801    -0.58000
O316        O  0.23159896  0.20068137  0.51824615    -0.56500
O317        O  0.33073503  0.27052065  0.53070558    -0.56500
O318        O  0.26727891  0.21562407  0.60362931    -0.55700
C319        C  0.24475233  0.12523606  0.98031165    -0.01500
C320        C  0.25248820  0.37046130  0.73183529    -0.01500
O321        O  0.10619834  0.49296781  0.95729108    -0.56900
C322        C  0.21247218  0.08876360  0.48302120     0.75800
O323        O  0.18977196  0.45710544  0.54709605    -0.58000
C324        C  0.08589780  0.47897349  0.97744497     0.75700
C325        C  0.21887617  0.41641995  0.98509415     0.78100
Cd326      Cd  0.16501209  0.49766397  0.49697335     1.37500
O327        O  0.20231186  0.04920328  0.96194927    -0.56900
O328        O  0.20655281  0.45206134  0.96319605    -0.55700
C329        C  0.19304383  0.50567708  0.56163804     0.78100
O330        O  0.20141447  0.41270532  0.50957071    -0.58000
O331        O  0.19426107  0.09409212  0.50588149    -0.56500
O332        O  0.10165509  0.47253214  0.50773851    -0.56500
O333        O  0.18036481  0.05087031  0.54650788    -0.55700
C334        C  0.04593138  0.46590450  0.96705587    -0.01500
C335        C  0.48466718  0.37104604  0.76627371     0.87400
C336        C  0.51592073  0.36202249  0.74834702    -0.52800
C337        C  0.02954866  0.30593232  0.74838817     0.10400
C338        C  0.50965909  0.26466568  0.77011239     0.21300
C339        C  0.45735289  0.32340346  0.75273129    -0.53500
C340        C  0.47019894  0.26639954  0.75452483     0.10500
C341        C  0.49739690  0.35192378  0.79998586    -0.53100
C342        C  0.01065271  0.29811757  0.80395246     0.11000
H343        H  0.02786954  0.39892674  0.73667923     0.15600
H344        H  0.02186075  0.22102036  0.77321559     0.01300
H345        H  0.43091289  0.33459802  0.74184536     0.15900
H346        H  0.49607677  0.38048027  0.82068196     0.15600
O347        O  0.09584247  0.25456489  0.92982261    -0.56900
C348        C  0.02057762  0.28152725  0.83830441     0.75800
O349        O  0.99799915  0.22589523  0.92444321    -0.58000
C350        C  0.11179444  0.28015500  0.90938471     0.75700
C351        C  0.04356260  0.41468020  0.94204561     0.78100
Cd352      Cd  0.04161104  0.29657635  0.90858276     1.37500
O353        O  0.05208348  0.27400612  0.85072319    -0.56900
O354        O  0.06991530  0.38328548  0.93948908    -0.55700
C355        C  0.01989585  0.18833556  0.93750064     0.78100
O356        O  0.01492703  0.39399042  0.92731048    -0.58000
O357        O  0.49940822  0.28722593  0.85789966    -0.56500
O358        O  0.09467459  0.31321668  0.88848501    -0.56500
O359        O  0.05149575  0.20480972  0.94261164    -0.55700
O360        O  0.16631630  0.30748844  0.89581604    -0.56900
C361        C  0.24362113  0.34185150  0.95324793     0.75800
O362        O  0.26086821  0.19802197  0.94364579    -0.58000
C363        C  0.14857899  0.27174531  0.90980107     0.75700
C364        C  0.21381422  0.24305866  0.84423144     0.78100
Cd365      Cd  0.21928011  0.25446726  0.90955463     1.37500
O366        O  0.21331206  0.34194674  0.93684204    -0.56900
O367        O  0.22865456  0.28786170  0.85768200    -0.55700
C368        C  0.23714042  0.16487888  0.95184839     0.78100
O369        O  0.21187233  0.19794284  0.86113986    -0.56400
O370        O  0.26573029  0.30548856  0.94520964    -0.56500
O371        O  0.16402755  0.22850471  0.92419687    -0.56500
O372        O  0.20639004  0.16897199  0.93636414    -0.55700
C373        C  0.44960653  0.21123056  0.73941832    -0.01500
O374        O  0.39021574  0.24043976  0.75114720    -0.56900
C375        C  0.28463681  0.33290679  0.72980386     0.75800
O376        O  0.30134009  0.20455569  0.66520530    -0.58000
C377        C  0.40932176  0.22470276  0.73027757     0.75700
C378        C  0.27602844  0.16281540  0.72659016     0.78100
Cd379      Cd  0.32923619  0.24289340  0.71529275     1.37500
O380        O  0.29505862  0.29506670  0.75120594    -0.56900
O381        O  0.28770757  0.19952982  0.74815703    -0.55700
C382        C  0.29959627  0.25364027  0.65117757     0.78100
O383        O  0.29400517  0.15623015  0.70371398    -0.58000
O384        O  0.30240661  0.33761545  0.70662222    -0.56500
O385        O  0.39227983  0.21789630  0.70233303    -0.56500
O386        O  0.31542417  0.29663024  0.66594405    -0.55700
C387        C  0.00909017  0.12486399  0.94021865     0.87400
C388        C  0.97720016  0.11554373  0.95735885    -0.52800
C389        C  0.46779774  0.05955386  0.96125302     0.10400
C390        C  0.48630457  0.01907481  0.93821050     0.21300
C391        C  0.03664769  0.07831955  0.95472825    -0.53500
C392        C  0.02449641  0.02098694  0.95291997     0.10500
C393        C  0.99757117  0.10450186  0.90646469    -0.53100
C394        C  0.48579406  0.05211508  0.90491156     0.11000
H395        H  0.47057447  0.15211033  0.97381055     0.15600
H396        H  0.47463503  0.47370172  0.93612413     0.01300
H397        H  0.06284925  0.09033719  0.96589564     0.15900
H398        H  0.99924796  0.13252590  0.88563776     0.15600
O399        O  0.44676366  0.01593900  0.85816989    -0.56900
C400        C  0.38441577  0.52837513  0.80016855     0.75800
O401        O  0.48106375  0.13756520  0.77751908    -0.58000
C402        C  0.47649104  0.03499520  0.87021931     0.75700
C403        C  0.47359023  0.43439849  0.76908616     0.78100
Cd404      Cd  0.45415014  0.04392471  0.79922044     1.37500
O405        O  0.40036002  0.49866643  0.78132852    -0.56900
O406        O  0.44192816  0.44891798  0.76858383    -0.55700
C407        C  0.45223736  0.15988215  0.76429160     0.78100
O408        O  0.49607135  0.47353768  0.77894596    -0.58000
O409        O  0.40130141  0.56606088  0.81838395    -0.56500
O410        O  0.49598178  0.05125533  0.84983771    -0.56500
O411        O  0.42554171  0.13080556  0.76881951    -0.55700
O412        O  0.32958121  0.05511330  0.81224895    -0.56900
C413        C  0.25291084  0.08681826  0.75821590     0.75800
O414        O  0.23633667  0.44608306  0.76694978    -0.58000
C415        C  0.34797638  0.51901404  0.80110290     0.75700
C416        C  0.28358833  0.48983203  0.86902312     0.78100
Cd417      Cd  0.27795468  0.49992410  0.80349226     1.37500
O418        O  0.28477060  0.08022076  0.77000383    -0.56900
O419        O  0.27019960  0.03798200  0.85248751    -0.55700
C420        C  0.25965746  0.41072275  0.76015084     0.78100
O421        O  0.28798254  0.44508135  0.85254198    -0.58000
O422        O  0.23030803  0.05584039  0.76984457    -0.56500
O423        O  0.33221778  0.47632813  0.78642763    -0.56500
O424        O  0.28962505  0.41252916  0.77727601    -0.55700
C425        C  0.24516959  0.62549780  0.23012997    -0.01500
C426        C  0.25135039  0.88069299  0.48149020    -0.01500
O427        O  0.10632779  0.75009642  0.20907741    -0.56900
C428        C  0.21317009  0.66317931  0.23277002     0.75800
O429        O  0.20343410  0.83756178  0.25810649    -0.58000
C430        C  0.08685538  0.77075331  0.22844188     0.75700
C431        C  0.19380949  0.74434297  0.31115474     0.78100
Cd432      Cd  0.16691797  0.75222029  0.24623662     1.37500
O433        O  0.20200420  0.70015727  0.21112793    -0.56900
O434        O  0.17874337  0.70030406  0.29672720    -0.55700
C435        C  0.22068517  0.83146671  0.23470713     0.78100
O436        O  0.19212492  0.79266332  0.29635785    -0.58000
O437        O  0.19593265  0.65889621  0.25636067    -0.56500
O438        O  0.10350383  0.78253660  0.25601320    -0.56500
O439        O  0.20823619  0.79545803  0.21303750    -0.55700
C440        C  0.04673577  0.78447740  0.21797610    -0.01500
C441        C  0.48495142  0.87756419  0.01677415     0.87400
C442        C  0.45761950  0.92529667  0.00359584    -0.52800
C443        C  0.47052265  0.98219746  0.00562372     0.10400
C444        C  0.51004995  0.98378987  0.02101466     0.21300
C445        C  0.51607400  0.88676609  0.99869663    -0.53500
C446        C  0.02713356  0.94361572  0.99716495     0.10500
C447        C  0.49790484  0.89614716  0.05049895    -0.53100
C448        C  0.00857404  0.95020368  0.05299630     0.11000
H449        H  0.43115838  0.91420366  0.99274372     0.15600
H450        H  0.02172545  0.52917052  0.02199318     0.01300
H451        H  0.52524668  0.85072201  0.98529206     0.15900
H452        H  0.49671261  0.86713542  0.07103505     0.15600
O453        O  0.09497507  0.50256550  0.17706631    -0.56900
C454        C  0.01939462  0.96542986  0.08761152     0.75800
O455        O  0.01643723  0.85503003  0.17717174    -0.58000
C456        C  0.11256007  0.46839334  0.16184399     0.75700
C457        C  0.02183230  0.56158092  0.18877737     0.78100
Cd458      Cd  0.04255644  0.95201675  0.15803241     1.37500
O459        O  0.05064671  0.97723194  0.09931441    -0.56900
O460        O  0.05353234  0.54555607  0.19258858    -0.55700
C461        C  0.04487878  0.83501810  0.19263278     0.78100
O462        O  0.99962731  0.52359574  0.17671044    -0.58000
O463        O  0.50108637  0.95286119  0.10914567    -0.56500
O464        O  0.09709963  0.42688949  0.14557012    -0.56500
O465        O  0.07123140  0.86667051  0.19044975    -0.55700
O466        O  0.21244308  0.91006860  0.18880259    -0.56900
C467        C  0.14915440  0.47738211  0.16217385     0.75800
O468        O  0.26072216  0.55214788  0.19343436    -0.58000
C469        C  0.24391913  0.90659463  0.20230557     0.75700
C470        C  0.21124083  0.00561271  0.09442342     0.78100
Cd471      Cd  0.21880061  0.49592071  0.15915217     1.37500
O472        O  0.16680131  0.94135280  0.14385552    -0.56900
O473        O  0.22616674  0.96055493  0.10752637    -0.55700
C474        C  0.23713181  0.58525509  0.20193437     0.78100
O475        O  0.21095793  0.54991007  0.10965450    -0.58000
O476        O  0.16324743  0.52549849  0.17128591    -0.56500
O477        O  0.26630800  0.93980879  0.19191804    -0.56500
O478        O  0.20619642  0.58083904  0.18685671    -0.55700
O479        O  0.38949563  0.50889543  0.50168958    -0.56900
C480        C  0.28371046  0.91747946  0.47899585     0.75800
O481        O  0.29230697  0.59348634  0.45319193    -0.58000
C482        C  0.40887312  0.52450871  0.48102470     0.75700
C483        C  0.30121611  0.49807880  0.40129673     0.78100
Cd484      Cd  0.32901149  0.50808964  0.46545411     1.37500
O485        O  0.29440336  0.95565367  0.50011013    -0.56900
O486        O  0.31459386  0.95234453  0.41476640    -0.55700
C487        C  0.27547839  0.58774985  0.47693360     0.78100
O488        O  0.30531747  0.54762479  0.41477419    -0.58000
O489        O  0.30128320  0.91200905  0.45571717    -0.56500
O490        O  0.39222244  0.53164520  0.45297904    -0.56500
O491        O  0.28855424  0.55262499  0.49882756    -0.55700
C492        C  0.44894002  0.53810461  0.49060099    -0.01500
C493        C  0.01098805  0.62510271  0.19127647     0.87400
C494        C  0.03834049  0.67212806  0.20548841    -0.52800
C495        C  0.02592130  0.72932676  0.20330944     0.10400
C496        C  0.48743264  0.73175903  0.18772475     0.21300
C497        C  0.97913032  0.63443122  0.20844490    -0.53500
C498        C  0.46847423  0.69131027  0.21026723     0.10500
C499        C  0.99933961  0.64486336  0.15739884    -0.53100
C500        C  0.48712669  0.69890387  0.15457836     0.11000
H501        H  0.06455737  0.66046806  0.21677728     0.15600
H502        H  0.47594261  0.77608405  0.18517783     0.01300
H503        H  0.47124164  0.59869371  0.22291497     0.15900
H504        H  0.00107867  0.61651733  0.13671194     0.15600
O505        O  0.40005469  0.74650655  0.02772356    -0.56900
C506        C  0.47690621  0.71613973  0.12026725     0.75800
O507        O  0.48147021  0.61026184  0.02988398    -0.58000
C508        C  0.38403450  0.72057870  0.04797553     0.75700
C509        C  0.47368447  0.81445787  0.01949270     0.78100
Cd510      Cd  0.45442568  0.70560737  0.04976569     1.37500
O511        O  0.44560279  0.72696908  0.10835865    -0.56900
O512        O  0.44201588  0.80052606  0.01949714    -0.55700
C513        C  0.45266133  0.58899662  0.01592377     0.78100
O514        O  0.49608928  0.77501587  0.02896788    -0.58000
O515        O  0.49768244  0.70618093  0.09993848    -0.56500
O516        O  0.40104930  0.68679753  0.06856664    -0.56500
O517        O  0.42617214  0.61947803  0.01927374    -0.55700
O518        O  0.33078559  0.69966727  0.06593906    -0.56900
C519        C  0.25146203  0.66184743  0.00905122     0.75800
O520        O  0.28429709  0.80290215  0.10055697    -0.58000
C521        C  0.34742238  0.73009617  0.04813815     0.75700
C522        C  0.25935239  0.84220519  0.00982994     0.78100
Cd523      Cd  0.27715370  0.74993837  0.05092079     1.37500
O524        O  0.28233499  0.66264608  0.02420426    -0.56900
O525        O  0.28896557  0.83656908  0.52599523    -0.55700
C526        C  0.28296291  0.75643121  0.11652673     0.78100
O527        O  0.23592070  0.80706384  0.01663821    -0.58000
O528        O  0.22949718  0.69771593  0.01784446    -0.56500
O529        O  0.33110673  0.76948426  0.03096464    -0.56500
O530        O  0.26886401  0.71198201  0.10213606    -0.55700
C531        C  0.24273417  0.62370922  0.48007806    -0.01500
C532        C  0.25287481  0.86856921  0.23144427    -0.01500
O533        O  0.10515761  0.99806445  0.45855726    -0.56900
C534        C  0.21089750  0.58602616  0.98217544     0.75800
O535        O  0.18934832  0.95579927  0.04667829    -0.58000
C536        C  0.08562624  0.98036181  0.47865061     0.75700
C537        C  0.21926190  0.91834439  0.48445617     0.78100
Cd538      Cd  0.16586459  0.99902260  0.99667412     1.37500
O539        O  0.20133144  0.54629961  0.46186139    -0.56900
O540        O  0.20733366  0.95492460  0.46290143    -0.55700
C541        C  0.19365719  0.00401224  0.06152762     0.78100
O542        O  0.20222033  0.91264304  0.00817883    -0.58000
O543        O  0.19288898  0.59090864  0.00519803    -0.56500
O544        O  0.10134912  0.97605386  0.00718110    -0.56500
O545        O  0.18062139  0.54747986  0.04579314    -0.55700
C546        C  0.04534870  0.96657021  0.46883907    -0.01500
C547        C  0.48474667  0.87433358  0.26455778     0.87400
C548        C  0.51652584  0.86459076  0.24741411    -0.52800
C549        C  0.02832293  0.80729227  0.24709081     0.10400
C550        C  0.50972374  0.76804962  0.27015172     0.21300
C551        C  0.45766984  0.82627860  0.25115991    -0.53500
C552        C  0.47046656  0.76929274  0.25406883     0.10500
C553        C  0.49678536  0.85644470  0.29861344    -0.53100
C554        C  0.00947462  0.80120538  0.30301679     0.11000
H555        H  0.02533420  0.89962186  0.23374194     0.15600
H556        H  0.02106521  0.72309154  0.27305994     0.01300
H557        H  0.43140302  0.83714575  0.23965175     0.15900
H558        H  0.49500429  0.88583641  0.31886170     0.15600
O559        O  0.09380711  0.75698988  0.43004302    -0.56900
C560        C  0.01882674  0.78565331  0.33780969     0.75800
O561        O  0.99879435  0.72777843  0.42955478    -0.58000
C562        C  0.11045026  0.78595539  0.41143016     0.75700
C563        C  0.04245997  0.91569565  0.44356605     0.78100
Cd564      Cd  0.04010701  0.79879464  0.40875549     1.37500
O565        O  0.04969316  0.77358064  0.35046542    -0.56900
O566        O  0.06904249  0.88691908  0.43857168    -0.55700
C567        C  0.02145980  0.68880893  0.43928544     0.78100
O568        O  0.01353344  0.89318790  0.43056022    -0.58000
O569        O  0.49824006  0.80028805  0.35757111    -0.56500
O570        O  0.09397941  0.82198150  0.39179077    -0.56500
O571        O  0.05302356  0.70372331  0.43950993    -0.55700
O572        O  0.16479292  0.80976227  0.39631273    -0.56900
C573        C  0.24277625  0.84243287  0.45229167     0.75800
O574        O  0.25845463  0.69732282  0.44378283    -0.58000
C575        C  0.14712913  0.77674296  0.41197840     0.75700
C576        C  0.21026477  0.74132779  0.34434741     0.78100
Cd577      Cd  0.21684550  0.75444257  0.40989275     1.37500
O578        O  0.21272814  0.84454527  0.43549103    -0.56900
O579        O  0.22762141  0.78409034  0.35758247    -0.55700
C580        C  0.23490586  0.66362907  0.45175625     0.78100
O581        O  0.20511364  0.69805179  0.36163472    -0.56400
O582        O  0.26404502  0.80405338  0.44483446    -0.56500
O583        O  0.16239757  0.73458134  0.42761326    -0.56500
O584        O  0.20411775  0.66777764  0.43632253    -0.55700
C585        C  0.45015979  0.71353260  0.23947340    -0.01500
O586        O  0.39071177  0.74468875  0.24951653    -0.56900
C587        C  0.28504162  0.83141394  0.22875844     0.75800
O588        O  0.30389045  0.70315079  0.16332346    -0.58000
C589        C  0.41006475  0.72657237  0.22942251     0.75700
C590        C  0.27752848  0.66197167  0.22635709     0.78100
Cd591      Cd  0.33012909  0.74261776  0.21357042     1.37500
O592        O  0.29556544  0.79287227  0.24969523    -0.56900
O593        O  0.29077235  0.69750829  0.24796372    -0.55700
C594        C  0.30040398  0.75227858  0.14936179     0.78100
O595        O  0.29374596  0.65660114  0.20220424    -0.58000
O596        O  0.30272625  0.83714571  0.20556417    -0.56500
O597        O  0.39334740  0.71649558  0.20166230    -0.56500
O598        O  0.31481575  0.79642221  0.16414524    -0.55700
C599        C  0.01066028  0.62516566  0.44216461     0.87400
C600        C  0.97904889  0.61590139  0.45966067    -0.52800
C601        C  0.46702094  0.56043688  0.46114934     0.10400
C602        C  0.48497795  0.52008820  0.43769437     0.21300
C603        C  0.03799059  0.57770046  0.45608049    -0.53500
C604        C  0.02528729  0.52053556  0.45410930     0.10500
C605        C  0.99858764  0.60569097  0.40841849    -0.53100
C606        C  0.48401385  0.55357534  0.40453372     0.11000
H607        H  0.47110898  0.65285709  0.47453627     0.15600
H608        H  0.47387676  0.97411432  0.43381513     0.01300
H609        H  0.06433390  0.58906468  0.46718982     0.15900
H610        H  0.00022065  0.63426004  0.38779621     0.15600
O611        O  0.44519717  0.51881325  0.35755115    -0.56900
C612        C  0.38307742  0.03230483  0.29764877     0.75800
O613        O  0.48056492  0.64259522  0.27997700    -0.58000
C614        C  0.47514490  0.53641358  0.36992657     0.75700
C615        C  0.47330409  0.93758028  0.26662423     0.78100
Cd616      Cd  0.45407165  0.54566470  0.29910417     1.37500
O617        O  0.39910196  0.00241752  0.27896376    -0.56900
O618        O  0.44156421  0.95126146  0.26648106    -0.55700
C619        C  0.45213384  0.66249210  0.26449215     0.78100
O620        O  0.49551880  0.97722150  0.27625498    -0.58000
O621        O  0.40001491  0.06961534  0.31609873    -0.56500
O622        O  0.49532072  0.55169434  0.34990933    -0.56500
O623        O  0.42588127  0.63021537  0.26618564    -0.55700
O624        O  0.33010368  0.55620579  0.31473092    -0.56900
C625        C  0.25363037  0.58792258  0.25952763     0.75800
O626        O  0.23626424  0.94172795  0.26759644    -0.58000
C627        C  0.34661090  0.02277138  0.29839005     0.75700
C628        C  0.28304641  0.99133871  0.36674061     0.78100
Cd629      Cd  0.27696079  0.00102678  0.30111621     1.37500
O630        O  0.28402875  0.58872346  0.27571275    -0.56900
O631        O  0.26786311  0.53644838  0.35433671    -0.55700
C632        C  0.26026875  0.90889984  0.25964002     0.78100
O633        O  0.28781052  0.94688797  0.35016231    -0.58000
O634        O  0.23161635  0.55172891  0.26796110    -0.56500
O635        O  0.33089493  0.98091494  0.28286307    -0.56500
O636        O  0.29099202  0.91432870  0.27498309    -0.55700
C637        C  0.24528249  0.62526446  0.73153718    -0.01500
C638        C  0.25194503  0.88238413  0.98150817    -0.01500
O639        O  0.10665590  0.75218240  0.70927020    -0.56900
C640        C  0.21301801  0.66259830  0.73373300     0.75800
O641        O  0.20161681  0.83878668  0.75734813    -0.58000
C642        C  0.08681184  0.77010514  0.72901316     0.75700
C643        C  0.19541092  0.74451245  0.81138261     0.78100
Cd644      Cd  0.16664064  0.75170829  0.74671191     1.37500
O645        O  0.20191312  0.69928047  0.71191129    -0.56900
O646        O  0.18002535  0.70033237  0.79740998    -0.55700
C647        C  0.21902680  0.83218011  0.73406807     0.78100
O648        O  0.19316797  0.79267334  0.79640684    -0.58000
O649        O  0.19548906  0.65828531  0.75710688    -0.56500
O650        O  0.10289932  0.77838646  0.75721757    -0.56500
O651        O  0.20699309  0.79522694  0.71277641    -0.55700
C652        C  0.04682673  0.78414447  0.71832383    -0.01500
C653        C  0.48340138  0.87707500  0.51504182     0.87400
C654        C  0.45631194  0.92453211  0.50081262    -0.52800
C655        C  0.46895439  0.98165527  0.50332056     0.10400
C656        C  0.50802212  0.98359573  0.51986624     0.21300
C657        C  0.51557998  0.88653771  0.49831542    -0.53500
C658        C  0.02771756  0.94435032  0.49855453     0.10500
C659        C  0.49471486  0.89613343  0.54894689    -0.53100
C660        C  0.01023783  0.95143663  0.55481473     0.11000
H661        H  0.43016167  0.91322309  0.48920515     0.15600
H662        H  0.02144216  0.52909457  0.52386295     0.01300
H663        H  0.52570838  0.85057991  0.48549123     0.15900
H664        H  0.49283580  0.86714247  0.56935584     0.15600
O665        O  0.09739828  0.49345345  0.68394383    -0.56900
C666        C  0.02112756  0.96721505  0.58927499     0.75800
O667        O  0.01688498  0.85555221  0.67796788    -0.58000
C668        C  0.11399020  0.46565842  0.66478894     0.75700
C669        C  0.02349982  0.56128668  0.69021539     0.78100
Cd670      Cd  0.04377808  0.95221905  0.65951807     1.37500
O671        O  0.05274529  0.97569670  0.60108315    -0.56900
O672        O  0.05534902  0.54754333  0.69102366    -0.55700
C673        C  0.04527365  0.83466556  0.69306657     0.78100
O674        O  0.00140235  0.52139918  0.68077643    -0.58000
O675        O  0.49798878  0.95027451  0.60809084    -0.56500
O676        O  0.09750259  0.43117398  0.64427902    -0.56500
O677        O  0.07191836  0.86551546  0.69072858    -0.55700
O678        O  0.21323529  0.90636044  0.68525488    -0.56900
C679        C  0.15055491  0.47463935  0.66517829     0.75800
O680        O  0.26128289  0.55068844  0.69576881    -0.58000
C681        C  0.24349964  0.90671825  0.70163832     0.75700
C682        C  0.21187245  0.00762868  0.59355508     0.78100
Cd683      Cd  0.21952128  0.49564706  0.66047770     1.37500
O684        O  0.16679068  0.94421821  0.64304910    -0.56900
O685        O  0.22752743  0.96303659  0.60650730    -0.55700
C686        C  0.23763650  0.58444510  0.70359315     0.78100
O687        O  0.20723074  0.55226892  0.61195022    -0.58000
O688        O  0.16538040  0.51995749  0.67775390    -0.56500
O689        O  0.26570325  0.94290756  0.69351457    -0.56500
O690        O  0.20700934  0.58061264  0.68784618    -0.55700
O691        O  0.39045752  0.50645695  0.00216928    -0.56900
C692        C  0.28404720  0.91991627  0.97902930     0.75800
O693        O  0.29260112  0.59286357  0.95328181    -0.58000
C694        C  0.40956311  0.52477040  0.98185611     0.75700
C695        C  0.30079588  0.49497836  0.90187471     0.78100
Cd696      Cd  0.32925968  0.50727024  0.96602851     1.37500
O697        O  0.29459527  0.95811919  0.00016221    -0.56900
O698        O  0.31674145  0.95514483  0.91497885    -0.55700
C699        C  0.27540528  0.58719250  0.97677121     0.78100
O700        O  0.30384984  0.54458277  0.91532161    -0.58000
O701        O  0.30174198  0.91468800  0.95580311    -0.56500
O702        O  0.39238599  0.53513786  0.95432466    -0.56500
O703        O  0.28808022  0.55182293  0.99871846    -0.55700
C704        C  0.44995275  0.53760667  0.99122212    -0.01500
C705        C  0.01187129  0.62439892  0.69227836     0.87400
C706        C  0.03900102  0.67202916  0.70584735    -0.52800
C707        C  0.02622242  0.72893857  0.70353664     0.10400
C708        C  0.48623702  0.73080749  0.68771295     0.21300
C709        C  0.98024388  0.63365786  0.70975128    -0.53500
C710        C  0.46723139  0.69012115  0.71014264     0.10500
C711        C  0.99955674  0.64307870  0.65833921    -0.53100
C712        C  0.48602857  0.69835306  0.65435560     0.11000
H713        H  0.06534024  0.66086456  0.71703106     0.15600
H714        H  0.47464129  0.77504474  0.68528059     0.01300
H715        H  0.46952502  0.59728209  0.72204703     0.15900
H716        H  0.00114617  0.61422358  0.63783519     0.15600
O717        O  0.39832153  0.74941207  0.52984415    -0.56900
C718        C  0.47559060  0.71574749  0.61996114     0.75800
O719        O  0.47867462  0.60720669  0.53230836    -0.58000
C720        C  0.38237335  0.72119311  0.54925892     0.75700
C721        C  0.47234636  0.81375046  0.51780245     0.78100
Cd722      Cd  0.45262935  0.70586196  0.54922323     1.37500
O723        O  0.44429300  0.72707809  0.60817603    -0.56900
O724        O  0.44063599  0.79933484  0.51700211    -0.55700
C725        C  0.45065833  0.58926003  0.51529787     0.78100
O726        O  0.49471207  0.77499042  0.52852857    -0.58000
O727        O  0.49616366  0.70576396  0.59943596    -0.56500
O728        O  0.39943290  0.68540579  0.56861696    -0.56500
O729        O  0.42502615  0.62367383  0.51504535    -0.55700
O730        O  0.32909604  0.69881229  0.56693522    -0.56900
C731        C  0.25067626  0.66167174  0.50939084     0.75800
O732        O  0.28447575  0.80406578  0.60087383    -0.58000
C733        C  0.34575885  0.73016776  0.54956687     0.75700
C734        C  0.25845267  0.84088577  0.51001018     0.78100
Cd735      Cd  0.27558357  0.74954238  0.55177519     1.37500
O736        O  0.28058347  0.65996984  0.52643513    -0.56900
O737        O  0.28960807  0.83935384  0.02645178    -0.55700
C738        C  0.28208049  0.75830448  0.61719530     0.78100
O739        O  0.23451883  0.80757482  0.51767059    -0.58000
O740        O  0.22893105  0.69929647  0.51678693    -0.56500
O741        O  0.32942561  0.76982792  0.53263671    -0.56500
O742        O  0.26629267  0.71470994  0.60330408    -0.55700
C743        C  0.24290785  0.62383569  0.97985137    -0.01500
C744        C  0.25145622  0.86876055  0.73097364    -0.01500
O745        O  0.10584917  0.99584971  0.95855467    -0.56900
C746        C  0.21079908  0.58587478  0.48245699     0.75800
O747        O  0.19010640  0.95728372  0.54599808    -0.58000
C748        C  0.08558842  0.98095161  0.97860838     0.75700
C749        C  0.21941260  0.91888800  0.98472137     0.78100
Cd750      Cd  0.16594975  0.99928264  0.49598632     1.37500
O751        O  0.20076303  0.54780181  0.96093589    -0.56900
O752        O  0.20693761  0.95524467  0.96326616    -0.55700
C753        C  0.19413366  0.00564560  0.56070246     0.78100
O754        O  0.20181698  0.91275510  0.50775188    -0.58000
O755        O  0.19192502  0.59265205  0.50473366    -0.56500
O756        O  0.10222487  0.97244060  0.50668638    -0.56500
O757        O  0.17882942  0.55036912  0.54720581    -0.55700
C758        C  0.04554429  0.96639287  0.96805943    -0.01500
C759        C  0.48437763  0.87240054  0.76556093     0.87400
C760        C  0.51616793  0.86289006  0.74840996    -0.52800
C761        C  0.02822138  0.80722392  0.74724019     0.10400
C762        C  0.50918620  0.76601698  0.77061344     0.21300
C763        C  0.45719351  0.82457573  0.75191249    -0.53500
C764        C  0.46992668  0.76748413  0.75453006     0.10500
C765        C  0.49626231  0.85393069  0.79950765    -0.53100
C766        C  0.00907665  0.80182907  0.80297000     0.11000
H767        H  0.02547356  0.89955516  0.73384656     0.15600
H768        H  0.02097981  0.72347602  0.77338000     0.01300
H769        H  0.43090532  0.83564351  0.74053025     0.15900
H770        H  0.49452321  0.88312704  0.81984839     0.15600
O771        O  0.09627698  0.76057363  0.93001937    -0.56900
C772        C  0.01917205  0.78691858  0.83776923     0.75800
O773        O  0.00142642  0.73076006  0.93238890    -0.58000
C774        C  0.11243011  0.78797821  0.91042783     0.75700
C775        C  0.04384697  0.91555957  0.94298458     0.78100
Cd776      Cd  0.04209486  0.79921913  0.90832236     1.37500
O777        O  0.04974609  0.77171126  0.84975556    -0.56900
O778        O  0.07063531  0.88570453  0.93974332    -0.55700
C779        C  0.02357081  0.68977337  0.93927341     0.78100
O780        O  0.01533449  0.89404951  0.92849098    -0.58000
O781        O  0.49860845  0.79940195  0.85861944    -0.56500
O782        O  0.09553424  0.82243756  0.89011695    -0.56500
O783        O  0.05474822  0.70209374  0.93593325    -0.55700
O784        O  0.16663658  0.81064256  0.89457359    -0.56900
C785        C  0.24389528  0.84435470  0.95216418     0.75800
O786        O  0.25936468  0.69637805  0.94322712    -0.58000
C787        C  0.14903854  0.77858144  0.91081110     0.75700
C788        C  0.21264286  0.74190793  0.84437347     0.78100
Cd789      Cd  0.21878837  0.75596606  0.90975126     1.37500
O790        O  0.21415038  0.84660844  0.93487833    -0.56900
O791        O  0.22934377  0.78548530  0.85738241    -0.55700
C792        C  0.23531249  0.66428257  0.95170375     0.78100
O793        O  0.20856371  0.69829372  0.86180777    -0.56400
O794        O  0.26536592  0.80599398  0.94505090    -0.56500
O795        O  0.16432244  0.73713196  0.92706152    -0.56500
O796        O  0.20431514  0.67085084  0.93709777    -0.55700
C797        C  0.44949018  0.71183570  0.73986517    -0.01500
O798        O  0.39006431  0.74270842  0.75046577    -0.56900
C799        C  0.28359300  0.83131011  0.72862731     0.75800
O800        O  0.30295464  0.70446210  0.66379155    -0.58000
C801        C  0.40934477  0.72515666  0.73016267     0.75700
C802        C  0.27737592  0.66203798  0.72746716     0.78100
Cd803      Cd  0.32949388  0.74286166  0.71411634     1.37500
O804        O  0.29384700  0.79274927  0.74962559    -0.56900
O805        O  0.29028834  0.69837950  0.74874802    -0.55700
C806        C  0.30003355  0.75365311  0.64986092     0.78100
O807        O  0.29360030  0.65635709  0.70331476    -0.58000
O808        O  0.30176325  0.83723449  0.70579496    -0.56500
O809        O  0.39259853  0.71657518  0.70225128    -0.56500
O810        O  0.31523613  0.79725713  0.66456489    -0.55700
C811        C  0.01178953  0.62669957  0.94179888     0.87400
C812        C  0.98068882  0.61742867  0.95997915    -0.52800
C813        C  0.46766554  0.55881530  0.96122345     0.10400
C814        C  0.48633175  0.51788984  0.93850677     0.21300
C815        C  0.03896434  0.57842594  0.95466688    -0.53500
C816        C  0.02581083  0.52162907  0.95241392     0.10500
C817        C  0.99863082  0.60860121  0.90799432    -0.53100
C818        C  0.48632537  0.55043697  0.90511945     0.11000
H819        H  0.47045716  0.65168093  0.97308640     0.15600
H820        H  0.47473887  0.97480239  0.93573770     0.01300
H821        H  0.06554173  0.58904335  0.96543711     0.15900
H822        H  0.00005317  0.63765049  0.88753100     0.15600
O823        O  0.44619557  0.51884282  0.85845165    -0.56900
C824        C  0.38392140  0.02902710  0.79806043     0.75800
O825        O  0.48081846  0.63878708  0.77864646    -0.58000
C826        C  0.47686791  0.53311279  0.87058341     0.75700
C827        C  0.47340702  0.93580711  0.76801283     0.78100
Cd828      Cd  0.45441375  0.54349685  0.79975400     1.37500
O829        O  0.40052994  0.99832698  0.78021306    -0.56900
O830        O  0.44173252  0.95040017  0.76724226    -0.55700
C831        C  0.45203337  0.66048464  0.76487242     0.78100
O832        O  0.49589560  0.97468364  0.77830988    -0.58000
O833        O  0.40021338  0.06783455  0.81590362    -0.56500
O834        O  0.49729061  0.54591863  0.85031667    -0.56500
O835        O  0.42549894  0.63031509  0.76866048    -0.55700
O836        O  0.33087911  0.55314924  0.81667791    -0.56900
C837        C  0.25384865  0.58829078  0.76118291     0.75800
O838        O  0.23546055  0.94343948  0.76664131    -0.58000
C839        C  0.34746356  0.01924467  0.79851990     0.75700
C840        C  0.28528667  0.99435419  0.86696537     0.78100
Cd841      Cd  0.27759407  0.99936059  0.80105013     1.37500
O842        O  0.28435813  0.58893980  0.77721170    -0.56900
O843        O  0.26665886  0.53235733  0.85509947    -0.55700
C844        C  0.25883546  0.90855776  0.75942936     0.78100
O845        O  0.28744803  0.94799734  0.85110636    -0.58000
O846        O  0.23184683  0.55221706  0.76973688    -0.56500
O847        O  0.33249033  0.97439601  0.78544115    -0.56500
O848        O  0.28908035  0.91086901  0.77601830    -0.55700
C849        C  0.74384585  0.12632130  0.22918350    -0.01500
C850        C  0.74990025  0.38034618  0.48283881    -0.01500
O851        O  0.60739846  0.25506195  0.20976832    -0.56900
C852        C  0.71172259  0.16363095  0.23191258     0.75800
O853        O  0.70260299  0.34099506  0.25861578    -0.58000
C854        C  0.58754361  0.27106609  0.22991200     0.75700
C855        C  0.69655535  0.24471589  0.31186861     0.78100
Cd856      Cd  0.66731335  0.25345319  0.24722385     1.37500
O857        O  0.70156831  0.20266411  0.21115481    -0.56900
O858        O  0.68294647  0.19992825  0.29712715    -0.55700
C859        C  0.72048657  0.33429568  0.23568219     0.78100
O860        O  0.69242721  0.29354115  0.29767692    -0.58000
O861        O  0.69393548  0.15799271  0.25505143    -0.56500
O862        O  0.60366081  0.27793865  0.25822336    -0.56500
O863        O  0.70890557  0.29694727  0.21447438    -0.55700
C864        C  0.54743001  0.28430454  0.21974333    -0.01500
C865        C  0.98508241  0.37856244  0.01620263     0.87400
C866        C  0.95754125  0.42622292  0.00326590    -0.52800
C867        C  0.97043496  0.48318388  0.00485043     0.10400
C868        C  0.01010145  0.48490074  0.01980591     0.21300
C869        C  0.01565694  0.38763929  0.99750008    -0.53500
C870        C  0.52776435  0.44248890  0.99846157     0.10500
C871        C  0.99865729  0.39745212  0.04976865    -0.53100
C872        C  0.51110151  0.45014680  0.05499682     0.11000
H873        H  0.93096961  0.41501847  0.99278799     0.15600
H874        H  0.52174152  0.02796963  0.02353959     0.01300
H875        H  0.02452374  0.35152388  0.98396694     0.15900
H876        H  0.99768905  0.36876667  0.07048005     0.15600
O877        O  0.59784853  0.99454141  0.17868883    -0.56900
C878        C  0.52197506  0.46597833  0.08956282     0.75800
O879        O  0.51591560  0.35836089  0.18193084    -0.58000
C880        C  0.61379300  0.96645687  0.15920466     0.75700
C881        C  0.52435897  0.06117161  0.18989004     0.78100
Cd882      Cd  0.54302125  0.45216143  0.16060631     1.37500
O883        O  0.55373273  0.47064923  0.10195061    -0.56900
O884        O  0.55609768  0.04702109  0.19038153    -0.55700
C885        C  0.54475364  0.33521588  0.19462550     0.78100
O886        O  0.50207955  0.02182989  0.17991390    -0.58000
O887        O  0.00042178  0.45818404  0.10763455    -0.56500
O888        O  0.59691949  0.93060123  0.13972909    -0.56500
O889        O  0.57149566  0.36334165  0.18948179    -0.55700
O890        O  0.71405010  0.40754410  0.18678956    -0.56900
C891        C  0.65024926  0.97586333  0.15911167     0.75800
O892        O  0.76064373  0.05355801  0.19295937    -0.58000
C893        C  0.74440996  0.40880151  0.20304418     0.75700
C894        C  0.70922122  0.50880693  0.09519888     0.78100
Cd895      Cd  0.72011856  0.99539005  0.15893476     1.37500
O896        O  0.66720807  0.44172644  0.15087310    -0.56900
O897        O  0.72498669  0.46448065  0.10825596    -0.55700
C898        C  0.73663924  0.08666359  0.20070265     0.78100
O899        O  0.71361127  0.05236157  0.11068277    -0.58000
O900        O  0.66557950  0.01812557  0.17459591    -0.56500
O901        O  0.76620117  0.44554870  0.19473055    -0.56500
O902        O  0.70604935  0.08203823  0.18492136    -0.55700
O903        O  0.88931548  0.00792427  0.50208823    -0.56900
C904        C  0.78195970  0.41816465  0.48055037     0.75800
O905        O  0.79382338  0.09585863  0.45538590    -0.58000
C906        C  0.90877622  0.02460558  0.48173631     0.75700
C907        C  0.79966188  0.00233994  0.40076996     0.78100
Cd908      Cd  0.82878818  0.00875364  0.46542038     1.37500
O909        O  0.79135180  0.45794191  0.50109782    -0.56900
O910        O  0.81325104  0.45130033  0.41751934    -0.55700
C911        C  0.77666715  0.08913535  0.47882676     0.78100
O912        O  0.80354571  0.05111582  0.41510825    -0.58000
O913        O  0.80122113  0.41084822  0.45862621    -0.56500
O914        O  0.89215463  0.03287812  0.45375403    -0.56500
O915        O  0.78895001  0.05218131  0.50002035    -0.55700
C916        C  0.94892426  0.03796310  0.49141931    -0.01500
C917        C  0.51302528  0.12450776  0.19254897     0.87400
C918        C  0.54001547  0.17198141  0.20687002    -0.52800
C919        C  0.52716741  0.22895911  0.20472742     0.10400
C920        C  0.98631892  0.23107817  0.18708993     0.21300
C921        C  0.48092727  0.13364013  0.20957035    -0.53500
C922        C  0.96756492  0.19026624  0.20980868     0.10500
C923        C  0.50149018  0.14402677  0.15863221    -0.53100
C924        C  0.98632750  0.19829011  0.15372443     0.11000
H925        H  0.56626975  0.16078703  0.21828521     0.15600
H926        H  0.97463345  0.27526016  0.18456572     0.01300
H927        H  0.97029403  0.09733633  0.22162722     0.15900
H928        H  0.50335369  0.11568318  0.13796258     0.15600
O929        O  0.89944684  0.24318081  0.02582592    -0.56900
C930        C  0.97677813  0.21515135  0.11911523     0.75800
O931        O  0.98050039  0.11102232  0.02676057    -0.58000
C932        C  0.88497996  0.22378565  0.04899269     0.75700
C933        C  0.97415987  0.31525888  0.01911241     0.78100
Cd934      Cd  0.95444065  0.20565667  0.04833184     1.37500
O935        O  0.94612830  0.22970629  0.10700870    -0.56900
O936        O  0.94247225  0.29976089  0.01661236    -0.55700
C937        C  0.95150117  0.08865443  0.01401320     0.78100
O938        O  0.99657323  0.27686389  0.03022369    -0.58000
O939        O  0.99713473  0.20192364  0.09883209    -0.56500
O940        O  0.90307195  0.19485355  0.07126467    -0.56500
O941        O  0.92499520  0.11768381  0.01908180    -0.55700
O942        O  0.83229953  0.20322873  0.06786179    -0.56900
C943        C  0.75348119  0.16513620  0.00935224     0.75800
O944        O  0.78682579  0.30503529  0.10244193    -0.58000
C945        C  0.84874387  0.23424810  0.05015428     0.75700
C946        C  0.76014944  0.34366004  0.01163806     0.78100
Cd947      Cd  0.77868718  0.25254650  0.05273005     1.37500
O948        O  0.78404412  0.16428306  0.02524107    -0.56900
O949        O  0.78812506  0.33960739  0.52785447    -0.55700
C950        C  0.78364216  0.25908964  0.11837600     0.78100
O951        O  0.73684770  0.30921186  0.01938560    -0.58000
O952        O  0.73195908  0.20212459  0.01777394    -0.56500
O953        O  0.83246984  0.27435840  0.03354410    -0.56500
O954        O  0.76832278  0.21570344  0.10382286    -0.55700
C955        C  0.74417842  0.12546356  0.48212580    -0.01500
C956        C  0.75274785  0.37140752  0.23259179    -0.01500
O957        O  0.60478484  0.49614266  0.45780646    -0.56900
C958        C  0.71212400  0.08993531  0.98276414     0.75800
O959        O  0.68803439  0.45751700  0.04793014    -0.58000
C960        C  0.58489160  0.47976483  0.47785460     0.75700
C961        C  0.71721933  0.41657154  0.48523114     0.78100
Cd962      Cd  0.66543515  0.49771648  0.99738513     1.37500
O963        O  0.70212665  0.04955913  0.46287402    -0.56900
O964        O  0.70491610  0.45186598  0.46313568    -0.55700
C965        C  0.69187435  0.50630662  0.06223473     0.78100
O966        O  0.70288227  0.41345144  0.01013465    -0.58000
O967        O  0.69448491  0.09494362  0.00604870    -0.56500
O968        O  0.60191411  0.47183591  0.00784015    -0.56500
O969        O  0.68159872  0.05097792  0.04715257    -0.55700
C970        C  0.54500331  0.46609257  0.46756057    -0.01500
C971        C  0.98463968  0.37194990  0.26660355     0.87400
C972        C  0.01610781  0.36300434  0.24891684    -0.52800
C973        C  0.52953117  0.30629442  0.24929814     0.10400
C974        C  0.00976183  0.26561486  0.27060203     0.21300
C975        C  0.95746830  0.32416144  0.25292088    -0.53500
C976        C  0.97037731  0.26714911  0.25487410     0.10500
C977        C  0.99710920  0.35282166  0.30037855    -0.53100
C978        C  0.50922812  0.29860933  0.30432078     0.11000
H979        H  0.52840073  0.39934033  0.23787692     0.15600
H980        H  0.52134142  0.22162480  0.27396930     0.01300
H981        H  0.93106759  0.33526085  0.24188797     0.15900
H982        H  0.99553071  0.38134567  0.32103440     0.15600
O983        O  0.59422373  0.24971237  0.42764512    -0.56900
C984        C  0.51952447  0.28249810  0.33867742     0.75800
O985        O  0.49813688  0.22721539  0.42708381    -0.58000
C986        C  0.61107237  0.27990647  0.40972563     0.75700
C987        C  0.54308314  0.41471829  0.44274809     0.78100
Cd988      Cd  0.54106933  0.29699096  0.40891135     1.37500
O989        O  0.55117824  0.27621253  0.35090852    -0.56900
O990        O  0.56920332  0.38193881  0.44156196    -0.55700
C991        C  0.52036734  0.18865377  0.43835841     0.78100
O992        O  0.51469579  0.39499060  0.42705799    -0.58000
O993        O  0.99894857  0.28928686  0.35841452    -0.56500
O994        O  0.59494415  0.31826130  0.39142358    -0.56500
O995        O  0.55213932  0.20403383  0.44137219    -0.55700
O996        O  0.66600898  0.30761529  0.39744182    -0.56900
C997        C  0.74199503  0.34133180  0.45382897     0.75800
O998        O  0.76009447  0.19889801  0.44570207    -0.58000
C999        C  0.64776490  0.27077737  0.41011565     0.75700
C1000       C  0.71374681  0.24184312  0.34489511     0.78100
Cd1001     Cd  0.71840956  0.25327021  0.41032869     1.37500
O1002       O  0.71161347  0.34073029  0.43754225    -0.56900
O1003       O  0.72862459  0.28641656  0.35857012    -0.55700
C1004       C  0.73654464  0.16514301  0.45366237     0.78100
O1005       O  0.71129313  0.19678678  0.36172890    -0.56400
O1006       O  0.76430603  0.30526861  0.44584943    -0.56500
O1007       O  0.66264887  0.22592520  0.42325986    -0.56500
O1008       O  0.70597678  0.16822274  0.43770560    -0.55700
C1009       C  0.94990599  0.21176392  0.23985234    -0.01500
O1010       O  0.89059695  0.24164795  0.25150655    -0.56900
C1011       C  0.78500185  0.33409408  0.23039570     0.75800
O1012       O  0.80231295  0.20517948  0.16547513    -0.58000
C1013       C  0.90963355  0.22524070  0.23071553     0.75700
C1014       C  0.77606022  0.16368722  0.22650127     0.78100
Cd1015     Cd  0.82957863  0.24389162  0.21562445     1.37500
O1016       O  0.79553448  0.29612302  0.25169257    -0.56900
O1017       O  0.78756152  0.20049407  0.24807407    -0.55700
C1018       C  0.80046038  0.25418180  0.15136951     0.78100
O1019       O  0.79421916  0.15717246  0.20376209    -0.58000
O1020       O  0.80263507  0.33889350  0.20711500    -0.56500
O1021       O  0.89253570  0.21787333  0.20285142    -0.56500
O1022       O  0.81601938  0.29740922  0.16614415    -0.55700
C1023       C  0.50945409  0.12518755  0.44066411     0.87400
C1024       C  0.47734766  0.11573743  0.45742985    -0.52800
C1025       C  0.96642656  0.05999150  0.46157585     0.10400
C1026       C  0.98517818  0.01965523  0.43867709     0.21300
C1027       C  0.53678369  0.07821252  0.45509613    -0.53500
C1028       C  0.52442623  0.02097820  0.45295348     0.10500
C1029       C  0.49815760  0.10555451  0.40676438    -0.53100
C1030       C  0.98483268  0.05258271  0.40537079     0.11000
H1031       H  0.96872473  0.15277301  0.47379167     0.15600
H1032       H  0.97442376  0.47427385  0.43575411     0.01300
H1033       H  0.56293463  0.08992051  0.46653807     0.15900
H1034       H  0.49999900  0.13415108  0.38620379     0.15600
O1035       O  0.94645734  0.01581130  0.35847181    -0.56900
C1036       C  0.88380544  0.52987442  0.30094512     0.75800
O1037       O  0.98130934  0.13725768  0.27750024    -0.58000
C1038       C  0.97601955  0.03514607  0.37070957     0.75700
C1039       C  0.97351784  0.43540024  0.26927026     0.78100
Cd1040     Cd  0.95405714  0.04414960  0.29966476     1.37500
O1041       O  0.89981324  0.49848657  0.28291192    -0.56900
O1042       O  0.94178137  0.45049537  0.26747151    -0.55700
C1043       C  0.95251960  0.16034869  0.26475013     0.78100
O1044       O  0.99587983  0.47419490  0.27993449    -0.58000
O1045       O  0.90057750  0.56938938  0.31786965    -0.56500
O1046       O  0.99568494  0.05147236  0.35049067    -0.56500
O1047       O  0.92570677  0.13213721  0.26990074    -0.55700
O1048       O  0.82899563  0.05708095  0.31135440    -0.56900
C1049       C  0.75273729  0.08761371  0.25801678     0.75800
O1050       O  0.73620168  0.44641033  0.26786119    -0.58000
C1051       C  0.84742726  0.52026873  0.30231917     0.75700
C1052       C  0.78194384  0.49173798  0.36975447     0.78100
Cd1053     Cd  0.77719904  0.50104304  0.30436090     1.37500
O1054       O  0.78444120  0.08193934  0.27053450    -0.56900
O1055       O  0.77046864  0.04385890  0.35271710    -0.55700
C1056       C  0.75978785  0.41164153  0.26094924     0.78100
O1057       O  0.78427878  0.44607538  0.35338095    -0.58000
O1058       O  0.73006064  0.05599801  0.26910626    -0.56500
O1059       O  0.83202631  0.47607572  0.28896469    -0.56500
O1060       O  0.78980608  0.41403319  0.27799069    -0.55700
C1061       C  0.74416809  0.12680041  0.73016731    -0.01500
C1062       C  0.75213236  0.38280720  0.98302762    -0.01500
O1063       O  0.60632107  0.25638128  0.70767932    -0.56900
C1064       C  0.71234094  0.16501219  0.73280431     0.75800
O1065       O  0.70156192  0.34211465  0.75702444    -0.58000
C1066       C  0.58608569  0.27036652  0.72791199     0.75700
C1067       C  0.69350129  0.25231270  0.81063043     0.78100
Cd1068     Cd  0.66603911  0.25506982  0.74580417     1.37500
O1069       O  0.70180025  0.20270099  0.71138756    -0.56900
O1070       O  0.68112357  0.20613797  0.79648690    -0.55700
C1071       C  0.71925360  0.33513017  0.73398866     0.78100
O1072       O  0.68852471  0.30038861  0.79570556    -0.58000
O1073       O  0.69477745  0.16086659  0.75618071    -0.56500
O1074       O  0.60185897  0.27567371  0.75643721    -0.56500
O1075       O  0.70714946  0.29840360  0.71259950    -0.55700
C1076       C  0.54599542  0.28371172  0.71769366    -0.01500
C1077       C  0.98464905  0.37869116  0.51826790     0.87400
C1078       C  0.95730206  0.42609027  0.50477711    -0.52800
C1079       C  0.97012864  0.48301055  0.50627479     0.10400
C1080       C  0.00971627  0.48491340  0.52171762     0.21300
C1081       C  0.01564833  0.38737862  0.50002208    -0.53500
C1082       C  0.52699862  0.44402706  0.49699952     0.10500
C1083       C  0.99765267  0.39796634  0.55188618    -0.53100
C1084       C  0.51033833  0.45070845  0.55363684     0.11000
H1085       H  0.93086865  0.41469466  0.49398333     0.15600
H1086       H  0.51966602  0.02774987  0.52275493     0.01300
H1087       H  0.02470066  0.35107214  0.48674723     0.15900
H1088       H  0.99647214  0.36940626  0.57261097     0.15600
O1089       O  0.59511491  0.99055509  0.67882350    -0.56900
C1090       C  0.52049905  0.46665181  0.58822050     0.75800
O1091       O  0.51507125  0.35688525  0.67879179    -0.58000
C1092       C  0.61109335  0.96405161  0.65877493     0.75700
C1093       C  0.52228431  0.06041315  0.68855180     0.78100
Cd1094     Cd  0.54190628  0.45283490  0.65895665     1.37500
O1095       O  0.55183042  0.47607423  0.60055693    -0.56900
O1096       O  0.55387127  0.04654872  0.68792698    -0.55700
C1097       C  0.54373857  0.33530922  0.69294255     0.78100
O1098       O  0.49985291  0.02066103  0.67972696    -0.58000
O1099       O  0.00087936  0.45841928  0.61009286    -0.56500
O1100       O  0.59412405  0.93005739  0.63822496    -0.56500
O1101       O  0.57029628  0.36595076  0.68994519    -0.55700
O1102       O  0.71323192  0.40858399  0.68535217    -0.56900
C1103       C  0.64767791  0.97357806  0.65926743     0.75800
O1104       O  0.75950649  0.05285074  0.69369603    -0.58000
C1105       C  0.74359646  0.40945133  0.70160723     0.75700
C1106       C  0.70990143  0.50563000  0.59272564     0.78100
Cd1107     Cd  0.71759536  0.99554544  0.65957295     1.37500
O1108       O  0.66708765  0.43877343  0.65089160    -0.56900
O1109       O  0.72298501  0.45967286  0.60621206    -0.55700
C1110       C  0.73613045  0.08680377  0.70176969     0.78100
O1111       O  0.70776194  0.05131344  0.61108922    -0.58000
O1112       O  0.66265588  0.01584720  0.67506067    -0.56500
O1113       O  0.76545364  0.44613593  0.69335494    -0.56500
O1114       O  0.70532912  0.08276308  0.68637744    -0.55700
O1115       O  0.88910237  0.00736749  0.00052756    -0.56900
C1116       C  0.78406080  0.42032600  0.97983984     0.75800
O1117       O  0.79275826  0.09380093  0.95246207    -0.58000
C1118       C  0.90817561  0.02419995  0.97988365     0.75700
C1119       C  0.79929018  0.99421277  0.90007022     0.78100
Cd1120     Cd  0.82824558  0.00651303  0.96450753     1.37500
O1121       O  0.79462092  0.45932917  0.00049447    -0.56900
O1122       O  0.81417481  0.45390715  0.91530422    -0.55700
C1123       C  0.77625280  0.08937535  0.97648036     0.78100
O1124       O  0.80167105  0.04348393  0.91387747    -0.58000
O1125       O  0.80177763  0.41396554  0.95668567    -0.56500
O1126       O  0.89114977  0.03222161  0.95203858    -0.56500
O1127       O  0.78861514  0.05319948  0.99807986    -0.55700
C1128       C  0.94844054  0.03734757  0.98906716    -0.01500
C1129       C  0.51102194  0.12374066  0.69099473     0.87400
C1130       C  0.53824666  0.17138054  0.70477374    -0.52800
C1131       C  0.52550447  0.22841669  0.70261780     0.10400
C1132       C  0.98770399  0.23082828  0.68801534     0.21300
C1133       C  0.47927454  0.13293040  0.70834219    -0.53500
C1134       C  0.96875395  0.19029948  0.71050125     0.10500
C1135       C  0.49892376  0.14269833  0.65712620    -0.53100
C1136       C  0.98756800  0.19803739  0.65484506     0.11000
H1137       H  0.56460170  0.16022261  0.71593202     0.15600
H1138       H  0.97607638  0.27503894  0.68544371     0.01300
H1139       H  0.97197038  0.09759002  0.72315266     0.15900
H1140       H  0.50059480  0.11392954  0.63659265     0.15600
O1141       O  0.89885977  0.24605716  0.52748192    -0.56900
C1142       C  0.97689507  0.21518372  0.62057559     0.75800
O1143       O  0.98007603  0.11064167  0.53026271    -0.58000
C1144       C  0.88360182  0.22432235  0.54955538     0.75700
C1145       C  0.97345647  0.31562305  0.52110382     0.78100
Cd1146     Cd  0.95353062  0.20622051  0.55020541     1.37500
O1147       O  0.94548809  0.22613421  0.60904088    -0.56900
O1148       O  0.94169365  0.30093267  0.51935441    -0.55700
C1149       C  0.95133244  0.08911211  0.51636863     0.78100
O1150       O  0.99576179  0.27667581  0.53159278    -0.58000
O1151       O  0.99738205  0.20546983  0.59995261    -0.56500
O1152       O  0.90119565  0.19391306  0.57148191    -0.56500
O1153       O  0.92476800  0.11934295  0.51990076    -0.55700
O1154       O  0.83078012  0.20330337  0.56803683    -0.56900
C1155       C  0.75225389  0.16354908  0.51134784     0.75800
O1156       O  0.78704940  0.30591183  0.60229741    -0.58000
C1157       C  0.84708969  0.23391573  0.55004898     0.75700
C1158       C  0.75757552  0.34175356  0.51173870     0.78100
Cd1159     Cd  0.77699361  0.25209737  0.55331792     1.37500
O1160       O  0.78219399  0.16187266  0.52837640    -0.56900
O1161       O  0.79069387  0.34127052  0.02774842    -0.55700
C1162       C  0.78351387  0.26039881  0.61848079     0.78100
O1163       O  0.73427633  0.30746718  0.51966736    -0.58000
O1164       O  0.73063056  0.20153877  0.51852305    -0.56500
O1165       O  0.83049282  0.27299684  0.53283859    -0.56500
O1166       O  0.76680240  0.21768353  0.60453407    -0.55700
C1167       C  0.74441962  0.12716071  0.98009628    -0.01500
C1168       C  0.75183734  0.37145489  0.73096444    -0.01500
O1169       O  0.60592399  0.49409509  0.95933600    -0.56900
C1170       C  0.71210972  0.08761169  0.48423862     0.75800
O1171       O  0.68600448  0.45515168  0.54598000    -0.58000
C1172       C  0.58600597  0.47801892  0.97942912     0.75700
C1173       C  0.71966747  0.41913612  0.98636799     0.78100
Cd1174     Cd  0.66418373  0.49701235  0.49572828     1.37500
O1175       O  0.70146657  0.05183743  0.96159276    -0.56900
O1176       O  0.70656293  0.45411941  0.96443655    -0.55700
C1177       C  0.69182454  0.50384472  0.56007852     0.78100
O1178       O  0.69970579  0.41094991  0.50848306    -0.58000
O1179       O  0.69360408  0.09274604  0.50688977    -0.56500
O1180       O  0.60078479  0.47271332  0.50620562    -0.56500
O1181       O  0.67864871  0.04902479  0.54690363    -0.55700
C1182       C  0.54605942  0.46416449  0.96913700    -0.01500
C1183       C  0.98622926  0.37228442  0.76681925     0.87400
C1184       C  0.01787261  0.36282630  0.74948205    -0.52800
C1185       C  0.52804194  0.30536978  0.74726295     0.10400
C1186       C  0.01041613  0.26538255  0.77074143     0.21300
C1187       C  0.95875448  0.32512327  0.75278209    -0.53500
C1188       C  0.97114195  0.26780829  0.75482719     0.10500
C1189       C  0.99821673  0.35268529  0.80054472    -0.53100
C1190       C  0.51034166  0.29770929  0.80343009     0.11000
H1191       H  0.52529741  0.39826928  0.73523694     0.15600
H1192       H  0.52136399  0.22048499  0.77250593     0.01300
H1193       H  0.93252898  0.33683300  0.74155245     0.15900
H1194       H  0.99676426  0.38114583  0.82125363     0.15600
O1195       O  0.59421500  0.24347893  0.92236607    -0.56900
C1196       C  0.52112185  0.28190515  0.83794736     0.75800
O1197       O  0.49975424  0.22750487  0.92886648    -0.58000
C1198       C  0.61206486  0.28176410  0.91022361     0.75700
C1199       C  0.54419519  0.41265275  0.94437657     0.78100
Cd1200     Cd  0.54202716  0.29628461  0.90903211     1.37500
O1201       O  0.55290774  0.27958054  0.85045822    -0.56900
O1202       O  0.56976427  0.37816012  0.94444539    -0.55700
C1203       C  0.52208716  0.18895924  0.93998747     0.78100
O1204       O  0.51612143  0.39470176  0.92730080    -0.58000
O1205       O  0.99914151  0.29078058  0.85814864    -0.56500
O1206       O  0.59682525  0.32660435  0.89720570    -0.56500
O1207       O  0.55386586  0.20418911  0.94245213    -0.55700
O1208       O  0.66756855  0.31563369  0.90315657    -0.56900
C1209       C  0.74337629  0.34423423  0.95394977     0.75800
O1210       O  0.76067332  0.19954460  0.94304543    -0.58000
C1211       C  0.64881176  0.27415483  0.91085479     0.75700
C1212       C  0.71089659  0.25095662  0.84359121     0.78100
Cd1213     Cd  0.71890635  0.25822587  0.90960324     1.37500
O1214       O  0.71247104  0.34322272  0.93877925    -0.56900
O1215       O  0.72453209  0.29644032  0.85726619    -0.55700
C1216       C  0.73677314  0.16744141  0.95184169     0.78100
O1217       O  0.71076458  0.20510887  0.86020015    -0.56400
O1218       O  0.76555258  0.30917760  0.94472448    -0.56500
O1219       O  0.66314901  0.22575531  0.91894921    -0.56500
O1220       O  0.70574867  0.17348467  0.93729524    -0.55700
C1221       C  0.95037507  0.21271274  0.73979262    -0.01500
O1222       O  0.89129644  0.24616195  0.75028465    -0.56900
C1223       C  0.78385622  0.33355560  0.72865913     0.75800
O1224       O  0.80308861  0.20580932  0.66496818    -0.58000
C1225       C  0.91019435  0.22656332  0.73012382     0.75700
C1226       C  0.77675546  0.16319973  0.72693195     0.78100
Cd1227     Cd  0.82991031  0.24392055  0.71497190     1.37500
O1228       O  0.79424929  0.29551757  0.74996037    -0.56900
O1229       O  0.78941330  0.19918309  0.74856144    -0.55700
C1230       C  0.80119288  0.25501658  0.65107262     0.78100
O1231       O  0.79378237  0.15726000  0.70334243    -0.58000
O1232       O  0.80182019  0.33856025  0.70563654    -0.56500
O1233       O  0.89287249  0.21527032  0.70277481    -0.56500
O1234       O  0.81715610  0.29800055  0.66573590    -0.55700
C1235       C  0.51105225  0.12554911  0.94247303     0.87400
C1236       C  0.47987438  0.11619024  0.96041013    -0.52800
C1237       C  0.96572544  0.05862801  0.95888845     0.10400
C1238       C  0.98525834  0.01789133  0.93680797     0.21300
C1239       C  0.53847232  0.07796460  0.95578992    -0.53500
C1240       C  0.52576345  0.02088364  0.95369839     0.10500
C1241       C  0.49835095  0.10667795  0.90865695    -0.53100
C1242       C  0.98522577  0.04979341  0.90326636     0.11000
H1243       H  0.96706083  0.15171505  0.96998928     0.15600
H1244       H  0.97459035  0.47647737  0.93446740     0.01300
H1245       H  0.56489010  0.08925533  0.96669485     0.15900
H1246       H  0.49976466  0.13556424  0.88813812     0.15600
O1247       O  0.94416744  0.02185128  0.85661591    -0.56900
C1248       C  0.88523953  0.52800602  0.80057938     0.75800
O1249       O  0.98038680  0.14109830  0.77991080    -0.58000
C1250       C  0.97541931  0.03214881  0.86886324     0.75700
C1251       C  0.97544285  0.43580957  0.76961576     0.78100
Cd1252     Cd  0.95340942  0.04440744  0.79809454     1.37500
O1253       O  0.90064930  0.50209389  0.77990717    -0.56900
O1254       O  0.94374221  0.45127635  0.76710740    -0.55700
C1255       C  0.95205893  0.16144860  0.76449662     0.78100
O1256       O  0.99777130  0.47421902  0.78093500    -0.58000
O1257       O  0.90257311  0.56263288  0.82045418    -0.56500
O1258       O  0.99642235  0.04207795  0.84870660    -0.56500
O1259       O  0.92561975  0.12953708  0.76598549    -0.55700
O1260       O  0.82992743  0.05117175  0.81529101    -0.56900
C1261       C  0.75253497  0.08828483  0.75923306     0.75800
O1262       O  0.73623120  0.44598958  0.76687184    -0.58000
C1263       C  0.84877566  0.51839564  0.80134320     0.75700
C1264       C  0.78285524  0.49347898  0.86738312     0.78100
Cd1265     Cd  0.77821923  0.50048731  0.80210817     1.37500
O1266       O  0.78339385  0.08661801  0.77439368    -0.56900
O1267       O  0.76675331  0.03270679  0.85280544    -0.55700
C1268       C  0.75947709  0.41105643  0.75950111     0.78100
O1269       O  0.78506697  0.44722471  0.85143253    -0.58000
O1270       O  0.73026631  0.05285811  0.76793513    -0.56500
O1271       O  0.83318731  0.47554169  0.78666793    -0.56500
O1272       O  0.78975147  0.41291444  0.77613380    -0.55700
C1273       C  0.74490788  0.62558630  0.23181193    -0.01500
C1274       C  0.75090216  0.88104108  0.48076796    -0.01500
O1275       O  0.60707362  0.75298660  0.20922445    -0.56900
C1276       C  0.71270600  0.66289965  0.23390560     0.75800
O1277       O  0.70187511  0.83876477  0.25828556    -0.58000
C1278       C  0.58722866  0.77074952  0.22900118     0.75700
C1279       C  0.69415580  0.74137097  0.31157338     0.78100
Cd1280     Cd  0.66662207  0.75170086  0.24691510     1.37500
O1281       O  0.70196229  0.70000480  0.21220934    -0.56900
O1282       O  0.67825824  0.69811707  0.29708188    -0.55700
C1283       C  0.71930865  0.83267352  0.23497889     0.78100
O1284       O  0.69303504  0.78987989  0.29700616    -0.58000
O1285       O  0.69479273  0.65796868  0.25696308    -0.56500
O1286       O  0.60318849  0.77869402  0.25727339    -0.56500
O1287       O  0.70746168  0.79572387  0.21362234    -0.55700
C1288       C  0.54736030  0.78488470  0.21832568    -0.01500
C1289       C  0.98329941  0.87744258  0.01523280     0.87400
C1290       C  0.95609922  0.92511161  0.00170117    -0.52800
C1291       C  0.96894669  0.98207052  0.00397792     0.10400
C1292       C  0.00832943  0.98372435  0.01993861     0.21300
C1293       C  0.01486552  0.88689665  0.99766851    -0.53500
C1294       C  0.52834754  0.94338999  0.99792935     0.10500
C1295       C  0.99558001  0.89607072  0.04909886    -0.53100
C1296       C  0.51075344  0.95043263  0.05417277     0.11000
H1297       H  0.92974424  0.91402566  0.99051032     0.15600
H1298       H  0.52199472  0.52744619  0.02402399     0.01300
H1299       H  0.02433306  0.85100021  0.98434782     0.15900
H1300       H  0.99409307  0.86702259  0.06956406     0.15600
O1301       O  0.59625609  0.49557773  0.18394001    -0.56900
C1302       C  0.52115770  0.96634497  0.08871858     0.75800
O1303       O  0.51741781  0.85646512  0.17812553    -0.58000
C1304       C  0.61317881  0.46751192  0.16514946     0.75700
C1305       C  0.52308543  0.56176029  0.18963697     0.78100
Cd1306     Cd  0.54401556  0.95266793  0.15898563     1.37500
O1307       O  0.55215340  0.97950215  0.10051168    -0.56900
O1308       O  0.55483988  0.54639285  0.19222996    -0.55700
C1309       C  0.54583201  0.83549998  0.19309688     0.78100
O1310       O  0.50074235  0.52302701  0.17884473    -0.58000
O1311       O  0.99928620  0.95266083  0.10813399    -0.56500
O1312       O  0.59704015  0.43226194  0.14488946    -0.56500
O1313       O  0.57250238  0.86620529  0.19053604    -0.55700
O1314       O  0.71277291  0.90868741  0.18690221    -0.56900
C1315       C  0.64976750  0.47652021  0.16569954     0.75800
O1316       O  0.76093307  0.55193963  0.19555284    -0.58000
C1317       C  0.74341097  0.90767764  0.20253662     0.75700
C1318       C  0.71358321  0.00686814  0.09369969     0.78100
Cd1319     Cd  0.71881141  0.49657468  0.16111349     1.37500
O1320       O  0.66779086  0.94224070  0.14366914    -0.56900
O1321       O  0.72733409  0.96098718  0.10684765    -0.55700
C1322       C  0.73725562  0.58531185  0.20366628     0.78100
O1323       O  0.70701400  0.55344503  0.11241623    -0.58000
O1324       O  0.66509009  0.52005633  0.17990523    -0.56500
O1325       O  0.76585509  0.94270162  0.19373476    -0.56500
O1326       O  0.70651694  0.58145141  0.18811625    -0.55700
O1327       O  0.89011904  0.50591596  0.50217351    -0.56900
C1328       C  0.78299624  0.91873189  0.47857544     0.75800
O1329       O  0.79249934  0.59165658  0.45385777    -0.58000
C1330       C  0.90903679  0.52385362  0.48160435     0.75700
C1331       C  0.79949073  0.49573443  0.40251969     0.78100
Cd1332     Cd  0.82868895  0.50600904  0.46644142     1.37500
O1333       O  0.79340354  0.95643052  0.50004136    -0.56900
O1334       O  0.81324089  0.95751211  0.41544341    -0.55700
C1335       C  0.77560792  0.58641847  0.47757249     0.78100
O1336       O  0.80377676  0.54509567  0.41613574    -0.58000
O1337       O  0.80084203  0.91420154  0.45542894    -0.56500
O1338       O  0.89173079  0.53297712  0.45399091    -0.56500
O1339       O  0.78853979  0.55154748  0.49969636    -0.55700
C1340       C  0.94933456  0.53767034  0.49079388    -0.01500
C1341       C  0.51209869  0.62522172  0.19196037     0.87400
C1342       C  0.53944411  0.67259580  0.20563716    -0.52800
C1343       C  0.52678126  0.72967710  0.20350791     0.10400
C1344       C  0.98662170  0.73176083  0.18727015     0.21300
C1345       C  0.48066508  0.63464494  0.20960966    -0.53500
C1346       C  0.96729167  0.69120390  0.20957898     0.10500
C1347       C  0.49979835  0.64440412  0.15809920    -0.53100
C1348       C  0.98664658  0.69934391  0.15391631     0.11000
H1349       H  0.56578289  0.66119256  0.21672280     0.15600
H1350       H  0.97514186  0.77608132  0.18479428     0.01300
H1351       H  0.96921090  0.59829708  0.22127559     0.15900
H1352       H  0.50128527  0.61583940  0.13745442     0.15600
O1353       O  0.89798255  0.74448051  0.02749805    -0.56900
C1354       C  0.97625261  0.71642963  0.11947708     0.75800
O1355       O  0.98002993  0.60968206  0.02993886    -0.58000
C1356       C  0.88300774  0.72117851  0.04929230     0.75700
C1357       C  0.97219454  0.81417362  0.01793474     0.78100
Cd1358     Cd  0.95301300  0.70568899  0.04882975     1.37500
O1359       O  0.94499613  0.72803262  0.10772418    -0.56900
O1360       O  0.94049496  0.79955735  0.01699412    -0.55700
C1361       C  0.95161395  0.58916952  0.01480118     0.78100
O1362       O  0.99462384  0.77541537  0.02844733    -0.58000
O1363       O  0.99669552  0.70568796  0.09892673    -0.56500
O1364       O  0.90086033  0.68964113  0.07051689    -0.56500
O1365       O  0.92502195  0.62016107  0.01718917    -0.55700
O1366       O  0.83112195  0.70469982  0.07058789    -0.56900
C1367       C  0.75216796  0.66074793  0.01013694     0.75800
O1368       O  0.78362394  0.80261385  0.10170473    -0.58000
C1369       C  0.84655517  0.73070899  0.05011903     0.75700
C1370       C  0.75803448  0.84080082  0.01100054     0.78100
Cd1371     Cd  0.77626875  0.74905454  0.05233495     1.37500
O1372       O  0.78282665  0.66115793  0.02578362    -0.56900
O1373       O  0.78848420  0.83854810  0.52584387    -0.55700
C1374       C  0.78199337  0.75638119  0.11785468     0.78100
O1375       O  0.73451053  0.80620063  0.01818977    -0.58000
O1376       O  0.72990940  0.69599296  0.01897946    -0.56500
O1377       O  0.82908819  0.76525660  0.03047223    -0.56500
O1378       O  0.76751423  0.71196820  0.10364927    -0.55700
C1379       C  0.74303674  0.62284157  0.48051841    -0.01500
C1380       C  0.75156963  0.86969961  0.23186440    -0.01500
O1381       O  0.60507120  0.99797554  0.45843688    -0.56900
C1382       C  0.71177186  0.58564445  0.98311848     0.75800
O1383       O  0.69057605  0.95720262  0.04633630    -0.58000
C1384       C  0.58529482  0.97976554  0.47818310     0.75700
C1385       C  0.71849439  0.91769601  0.48405734     0.78100
Cd1386     Cd  0.66619109  0.99969780  0.99659930     1.37500
O1387       O  0.70114614  0.54651548  0.46160642    -0.56900
O1388       O  0.70583133  0.95379717  0.46252140    -0.55700
C1389       C  0.69527728  0.00543390  0.06106826     0.78100
O1390       O  0.70106261  0.91209613  0.00825884    -0.58000
O1391       O  0.69312441  0.59217452  0.00559191    -0.56500
O1392       O  0.60247709  0.97345175  0.00721847    -0.56500
O1393       O  0.67867571  0.55136216  0.04741443    -0.55700
C1394       C  0.54518047  0.96594866  0.46790998    -0.01500
C1395       C  0.98450716  0.87364330  0.26485775     0.87400
C1396       C  0.01601447  0.86396065  0.24733012    -0.52800
C1397       C  0.52877821  0.80785925  0.24728385     0.10400
C1398       C  0.00945452  0.76728610  0.27008155     0.21300
C1399       C  0.95729959  0.82563485  0.25154850    -0.53500
C1400       C  0.97010444  0.76857601  0.25416005     0.10500
C1401       C  0.99681380  0.85549199  0.29881826    -0.53100
C1402       C  0.50945832  0.80211885  0.30293235     0.11000
H1403       H  0.52614521  0.90027598  0.23405140     0.15600
H1404       H  0.52137841  0.72390547  0.27327242     0.01300
H1405       H  0.93095296  0.83659004  0.24027331     0.15900
H1406       H  0.99516044  0.88472260  0.31916800     0.15600
O1407       O  0.59448780  0.75807754  0.42994751    -0.56900
C1408       C  0.51877685  0.78636674  0.33761972     0.75800
O1409       O  0.49939418  0.72975850  0.43082254    -0.58000
C1410       C  0.61103542  0.78590527  0.41080025     0.75700
C1411       C  0.54271404  0.91523694  0.44266114     0.78100
Cd1412     Cd  0.54066106  0.79870257  0.40819307     1.37500
O1413       O  0.54938495  0.77221847  0.35001270    -0.56900
O1414       O  0.56952233  0.88736209  0.43736207    -0.55700
C1415       C  0.52171311  0.68956964  0.43912691     0.78100
O1416       O  0.51390760  0.89210371  0.42989597    -0.58000
O1417       O  0.99789845  0.79845986  0.35762664    -0.56500
O1418       O  0.59449591  0.82112824  0.39071596    -0.56500
O1419       O  0.55320872  0.70278410  0.43754721    -0.55700
O1420       O  0.66536535  0.80815842  0.39506678    -0.56900
C1421       C  0.74274020  0.84284003  0.45147794     0.75800
O1422       O  0.75898471  0.69591796  0.44398180    -0.58000
C1423       C  0.64768706  0.77627977  0.41134284     0.75700
C1424       C  0.71083803  0.73763885  0.34464379     0.78100
Cd1425     Cd  0.71742180  0.75312292  0.40987123     1.37500
O1426       O  0.71267778  0.84417335  0.43468554    -0.56900
O1427       O  0.72930362  0.77947158  0.35760718    -0.55700
C1428       C  0.73530891  0.66276295  0.45219561     0.78100
O1429       O  0.70458931  0.69528983  0.36215642    -0.56400
O1430       O  0.76429093  0.80479515  0.44416207    -0.56500
O1431       O  0.66292849  0.73488202  0.42769589    -0.56500
O1432       O  0.70444442  0.66757642  0.43704255    -0.55700
C1433       C  0.94963499  0.71288528  0.23945943    -0.01500
O1434       O  0.89031734  0.74325683  0.25067032    -0.56900
C1435       C  0.78375107  0.83227784  0.22949607     0.75800
O1436       O  0.80346020  0.70328241  0.16463765    -0.58000
C1437       C  0.90941334  0.72624549  0.23008191     0.75700
C1438       C  0.77713575  0.66231275  0.22811635     0.78100
Cd1439     Cd  0.82932770  0.74320730  0.21493884     1.37500
O1440       O  0.79421368  0.79403908  0.25063410    -0.56900
O1441       O  0.79008602  0.69828167  0.24960244    -0.55700
C1442       C  0.79956287  0.75240244  0.15068372     0.78100
O1443       O  0.79343120  0.65692577  0.20401628    -0.58000
O1444       O  0.80159073  0.83760778  0.20638760    -0.56500
O1445       O  0.89239745  0.71800632  0.20225446    -0.56500
O1446       O  0.81363783  0.79678418  0.16547901    -0.55700
C1447       C  0.51020781  0.62638117  0.44190201     0.87400
C1448       C  0.47957048  0.61701109  0.46056528    -0.52800
C1449       C  0.96702235  0.55917360  0.46081115     0.10400
C1450       C  0.98599839  0.51852873  0.43822337     0.21300
C1451       C  0.53759632  0.57835649  0.45457489    -0.53500
C1452       C  0.52457360  0.52146677  0.45268384     0.10500
C1453       C  0.49656079  0.60810023  0.40824043    -0.53100
C1454       C  0.98607346  0.55113258  0.40485723     0.11000
H1455       H  0.96953130  0.65206969  0.47272583     0.15600
H1456       H  0.97366533  0.97536687  0.43617007     0.01300
H1457       H  0.56419086  0.58929821  0.46513307     0.15900
H1458       H  0.49764903  0.63714508  0.38771289     0.15600
O1459       O  0.94630239  0.51780173  0.35827585    -0.56900
C1460       C  0.88376399  0.02829533  0.29920574     0.75800
O1461       O  0.98085047  0.63925182  0.27802498    -0.58000
C1462       C  0.97662937  0.53409265  0.37027520     0.75700
C1463       C  0.97340224  0.93704231  0.26738888     0.78100
Cd1464     Cd  0.95389215  0.54452996  0.29958182     1.37500
O1465       O  0.90080161  0.99472393  0.28317147    -0.56900
O1466       O  0.94170999  0.95140271  0.26685549    -0.55700
C1467       C  0.95212503  0.66137449  0.26441078     0.78100
O1468       O  0.99582902  0.97597601  0.27775565    -0.58000
O1469       O  0.89957731  0.07030405  0.31473351    -0.56500
O1470       O  0.99654739  0.54877878  0.34991617    -0.56500
O1471       O  0.92547233  0.63162831  0.26840934    -0.55700
O1472       O  0.83000123  0.55564150  0.31683414    -0.56900
C1473       C  0.75313812  0.58828138  0.26135581     0.75800
O1474       O  0.73521497  0.94394045  0.26762687    -0.58000
C1475       C  0.84730606  0.01864676  0.30003690     0.75700
C1476       C  0.78267328  0.99876193  0.36773127     0.78100
Cd1477     Cd  0.77690684  0.00122223  0.30181050     1.37500
O1478       O  0.78333443  0.58958834  0.27793423    -0.56900
O1479       O  0.76693191  0.53587582  0.35576609    -0.55700
C1480       C  0.75886520  0.90980610  0.26019041     0.78100
O1481       O  0.78232502  0.95140335  0.35229151    -0.58000
O1482       O  0.73115739  0.55169364  0.26946626    -0.56500
O1483       O  0.83270821  0.97166659  0.28952929    -0.56500
O1484       O  0.78930639  0.91340321  0.27631627    -0.55700
C1485       C  0.74435914  0.62482266  0.72939739    -0.01500
C1486       C  0.75083756  0.88037003  0.98233923    -0.01500
O1487       O  0.60600750  0.75061954  0.70915324    -0.56900
C1488       C  0.71213678  0.66180562  0.73228550     0.75800
O1489       O  0.70162236  0.83785512  0.75722637    -0.58000
C1490       C  0.58648083  0.77033951  0.72871049     0.75700
C1491       C  0.69624754  0.74193013  0.81127598     0.78100
Cd1492     Cd  0.66658731  0.75084882  0.74648377     1.37500
O1493       O  0.70072849  0.69890686  0.71079050    -0.56900
O1494       O  0.67885919  0.69930650  0.79758014    -0.55700
C1495       C  0.71923878  0.83110868  0.73410434     0.78100
O1496       O  0.69594280  0.78956526  0.79598441    -0.58000
O1497       O  0.69499373  0.65685926  0.75589793    -0.56500
O1498       O  0.60305995  0.78068679  0.75652806    -0.56500
O1499       O  0.70741142  0.79396851  0.71283579    -0.55700
C1500       C  0.54628220  0.78388422  0.71837335    -0.01500
C1501       C  0.98451203  0.87826139  0.51762296     0.87400
C1502       C  0.95701220  0.92581096  0.50439920    -0.52800
C1503       C  0.96972425  0.98283505  0.50628023     0.10400
C1504       C  0.00930213  0.98471595  0.52158838     0.21300
C1505       C  0.01565724  0.88762941  0.49953113    -0.53500
C1506       C  0.52738322  0.94343978  0.49748934     0.10500
C1507       C  0.99741875  0.89712060  0.55131464    -0.53100
C1508       C  0.50747006  0.95040381  0.55295735     0.11000
H1509       H  0.93051695  0.91456861  0.49369268     0.15600
H1510       H  0.52084889  0.52859248  0.52290712     0.01300
H1511       H  0.02506653  0.85158803  0.48627755     0.15900
H1512       H  0.99632937  0.86827769  0.57194035     0.15600
O1513       O  0.59453481  0.50241264  0.67686717    -0.56900
C1514       C  0.51767514  0.96565789  0.58767094     0.75800
O1515       O  0.51497242  0.85639600  0.67928706    -0.58000
C1516       C  0.61203519  0.46849590  0.66142716     0.75700
C1517       C  0.52187514  0.56089374  0.68926481     0.78100
Cd1518     Cd  0.54113016  0.95130565  0.65794973     1.37500
O1519       O  0.54837260  0.98043203  0.59950391    -0.56900
O1520       O  0.55364758  0.54576600  0.69158396    -0.55700
C1521       C  0.54379258  0.83452827  0.69294172     0.78100
O1522       O  0.49955136  0.52210352  0.67850175    -0.58000
O1523       O  0.00046006  0.95695506  0.60967965    -0.56500
O1524       O  0.59655223  0.42687949  0.64526264    -0.56500
O1525       O  0.57040541  0.86378175  0.68843989    -0.55700
O1526       O  0.71049049  0.91169284  0.68913016    -0.56900
C1527       C  0.64858273  0.47770579  0.66151021     0.75800
O1528       O  0.76008990  0.55233898  0.69238154    -0.58000
C1529       C  0.74217347  0.90682175  0.70187535     0.75700
C1530       C  0.70983956  0.00629753  0.59410967     0.78100
Cd1531     Cd  0.71826800  0.49611468  0.65838712     1.37500
O1532       O  0.66568197  0.94029582  0.64406119    -0.56900
O1533       O  0.72535130  0.96185729  0.60735540    -0.55700
C1534       C  0.73637520  0.58492513  0.70110219     0.78100
O1535       O  0.71082022  0.55170307  0.60931219    -0.58000
O1536       O  0.66291532  0.52513932  0.67156599    -0.56500
O1537       O  0.76460768  0.93932617  0.69105572    -0.56500
O1538       O  0.70538526  0.58031240  0.68615236    -0.55700
O1539       O  0.89042651  0.50697752  0.00008943    -0.56900
C1540       C  0.78308085  0.91755405  0.97993867     0.75800
O1541       O  0.79333224  0.59431065  0.95338374    -0.58000
C1542       C  0.90972544  0.52486373  0.97987140     0.75700
C1543       C  0.80030290  0.49810945  0.90017375     0.78100
Cd1544     Cd  0.82965091  0.50834181  0.96426399     1.37500
O1545       O  0.79297584  0.95701551  0.00051458    -0.56900
O1546       O  0.81407601  0.95079134  0.91527512    -0.55700
C1547       C  0.77641061  0.58741918  0.97699578     0.78100
O1548       O  0.80434887  0.54758023  0.91372300    -0.58000
O1549       O  0.80138580  0.91108222  0.95725845    -0.56500
O1550       O  0.89290752  0.53451223  0.95211032    -0.56500
O1551       O  0.78934671  0.55127086  0.99837156    -0.55700
C1552       C  0.94983384  0.53836168  0.98980967    -0.01500
C1553       C  0.51085502  0.62431436  0.69165274     0.87400
C1554       C  0.53818448  0.67156503  0.70563663    -0.52800
C1555       C  0.52558490  0.72865101  0.70362128     0.10400
C1556       C  0.98684061  0.73065122  0.68767131     0.21300
C1557       C  0.47921769  0.63344600  0.70907845    -0.53500
C1558       C  0.96790251  0.69029524  0.71030803     0.10500
C1559       C  0.49879263  0.64387316  0.65778619    -0.53100
C1560       C  0.98662067  0.69741692  0.65459327     0.11000
H1561       H  0.56448890  0.66010008  0.71676616     0.15600
H1562       H  0.97525979  0.77490296  0.68496701     0.01300
H1563       H  0.97075302  0.59767765  0.72298588     0.15900
H1564       H  0.50038981  0.61549182  0.63709181     0.15600
O1565       O  0.89931869  0.74853841  0.52902489    -0.56900
C1566       C  0.97618990  0.71417041  0.62018149     0.75800
O1567       O  0.98022988  0.60987362  0.53004664    -0.58000
C1568       C  0.88303175  0.72043026  0.54825286     0.75700
C1569       C  0.97341067  0.81496298  0.52031294     0.78100
Cd1570     Cd  0.95341663  0.70547986  0.54964391     1.37500
O1571       O  0.94514172  0.72733712  0.60849528    -0.56900
O1572       O  0.94166581  0.80017441  0.51867596    -0.55700
C1573       C  0.95162055  0.58928664  0.51529858     0.78100
O1574       O  0.99573990  0.77597896  0.53074769    -0.58000
O1575       O  0.99646435  0.70251870  0.59965991    -0.56500
O1576       O  0.89979754  0.68466273  0.56784155    -0.56500
O1577       O  0.92522805  0.62078386  0.51756420    -0.55700
O1578       O  0.82949943  0.69828325  0.56544635    -0.56900
C1579       C  0.75133437  0.66117928  0.50959864     0.75800
O1580       O  0.78647079  0.80384087  0.60012684    -0.58000
C1581       C  0.84640680  0.72979119  0.54834813     0.75700
C1582       C  0.75828503  0.84102481  0.50913850     0.78100
Cd1583     Cd  0.77633583  0.75014731  0.55100763     1.37500
O1584       O  0.78214940  0.66234798  0.52489116    -0.56900
O1585       O  0.78828683  0.83809327  0.02764448    -0.55700
C1586       C  0.78266921  0.75859759  0.61643127     0.78100
O1587       O  0.73487791  0.80596940  0.51607820    -0.58000
O1588       O  0.72916363  0.69695501  0.51813699    -0.56500
O1589       O  0.83034685  0.77011602  0.53172430    -0.56500
O1590       O  0.76605890  0.71584212  0.60243724    -0.55700
C1591       C  0.74380369  0.62334593  0.98067773    -0.01500
C1592       C  0.75133059  0.86832978  0.73081843    -0.01500
O1593       O  0.60622304  0.99684761  0.95885863    -0.56900
C1594       C  0.71098759  0.58513699  0.48271256     0.75800
O1595       O  0.68868517  0.95545736  0.54652829    -0.58000
C1596       C  0.58641990  0.97986340  0.97884951     0.75700
C1597       C  0.71871931  0.91782964  0.98512809     0.78100
Cd1598     Cd  0.66527077  0.99792130  0.49636966     1.37500
O1599       O  0.70187663  0.54662255  0.96230596    -0.56900
O1600       O  0.70723118  0.95490038  0.96371308    -0.55700
C1601       C  0.69236230  0.00389284  0.56121946     0.78100
O1602       O  0.70169754  0.91200237  0.50780167    -0.58000
O1603       O  0.69228002  0.59122778  0.50515324    -0.56500
O1604       O  0.60154101  0.97103747  0.50627349    -0.56500
O1605       O  0.67974427  0.54974681  0.54543151    -0.55700
C1606       C  0.54641396  0.96561938  0.96852133    -0.01500
C1607       C  0.98415524  0.87373924  0.76443212     0.87400
C1608       C  0.01590340  0.86390358  0.74727888    -0.52800
C1609       C  0.52823494  0.80619700  0.74783922     0.10400
C1610       C  0.00923802  0.76754018  0.77019625     0.21300
C1611       C  0.95707798  0.82561409  0.75109859    -0.53500
C1612       C  0.96991859  0.76862992  0.75406279     0.10500
C1613       C  0.99616333  0.85596575  0.79851838    -0.53100
C1614       C  0.50890431  0.79958266  0.80363451     0.11000
H1615       H  0.52591583  0.89874867  0.73524936     0.15600
H1616       H  0.52083888  0.72185598  0.77354039     0.01300
H1617       H  0.93081054  0.83642633  0.73957105     0.15900
H1618       H  0.99442888  0.88553745  0.81869686     0.15600
O1619       O  0.59548944  0.75614272  0.92895795    -0.56900
C1620       C  0.51851028  0.78394133  0.83838620     0.75800
O1621       O  0.50016723  0.72737172  0.93093695    -0.58000
C1622       C  0.61139929  0.78334308  0.90910827     0.75700
C1623       C  0.54420403  0.91441155  0.94346267     0.78100
Cd1624     Cd  0.54142683  0.79690449  0.90886987     1.37500
O1625       O  0.54893822  0.76827517  0.85049142    -0.56900
O1626       O  0.57066153  0.88357103  0.94034300    -0.55700
C1627       C  0.52261708  0.68756066  0.93964168     0.78100
O1628       O  0.51550179  0.89332571  0.92907907    -0.58000
O1629       O  0.99934114  0.80211098  0.85809028    -0.56500
O1630       O  0.59437605  0.81823473  0.88913173    -0.56500
O1631       O  0.55414607  0.70134811  0.93868485    -0.55700
O1632       O  0.66564305  0.80663058  0.89335032    -0.56900
C1633       C  0.74253330  0.84206311  0.95303710     0.75800
O1634       O  0.75948062  0.69690023  0.94429978    -0.58000
C1635       C  0.64801124  0.77401068  0.90929680     0.75700
C1636       C  0.71332557  0.73875195  0.84438738     0.78100
Cd1637     Cd  0.71825862  0.75354842  0.90978459     1.37500
O1638       O  0.71237415  0.84302586  0.93635003    -0.56900
O1639       O  0.73049392  0.78180618  0.85756016    -0.55700
C1640       C  0.73583777  0.66373316  0.95257034     0.78100
O1641       O  0.70835929  0.69553461  0.86181515    -0.56400
O1642       O  0.76433585  0.80493137  0.94523779    -0.56500
O1643       O  0.66339610  0.73271540  0.92561795    -0.56500
O1644       O  0.70499499  0.66827633  0.93732411    -0.55700
C1645       C  0.94960493  0.71268870  0.73957348    -0.01500
O1646       O  0.89016981  0.74571905  0.74926452    -0.56900
C1647       C  0.78349852  0.83114650  0.72802905     0.75800
O1648       O  0.80198713  0.70439265  0.66320165    -0.58000
C1649       C  0.90934161  0.72538850  0.72956364     0.75700
C1650       C  0.77637770  0.66198822  0.72564702     0.78100
Cd1651     Cd  0.82918029  0.74247657  0.71337578     1.37500
O1652       O  0.79424203  0.79292375  0.74910725    -0.56900
O1653       O  0.78929546  0.69768168  0.74730872    -0.55700
C1654       C  0.80004968  0.75350709  0.64920833     0.78100
O1655       O  0.79285273  0.65667134  0.70165783    -0.58000
O1656       O  0.80112322  0.83678629  0.70479704    -0.56500
O1657       O  0.89230426  0.71293708  0.70223693    -0.56500
O1658       O  0.81586794  0.79658396  0.66392124    -0.55700
C1659       C  0.51136735  0.62423190  0.94237473     0.87400
C1660       C  0.47984780  0.61539047  0.96001771    -0.52800
C1661       C  0.96813146  0.56087088  0.96047033     0.10400
C1662       C  0.98634477  0.52059973  0.93717364     0.21300
C1663       C  0.53855947  0.57655145  0.95614115    -0.53500
C1664       C  0.52568603  0.51953142  0.95416079     0.10500
C1665       C  0.49901899  0.60491325  0.90861701    -0.53100
C1666       C  0.98597427  0.55415329  0.90416172     0.11000
H1667       H  0.97181459  0.65327959  0.97369898     0.15600
H1668       H  0.97395652  0.97343440  0.93454435     0.01300
H1669       H  0.56496342  0.58772722  0.96715898     0.15900
H1670       H  0.50070011  0.63337607  0.88796435     0.15600
O1671       O  0.94713515  0.51880303  0.85761130    -0.56900
C1672       C  0.88335434  0.02835685  0.79804706     0.75800
O1673       O  0.98083608  0.64111436  0.77905316    -0.58000
C1674       C  0.97706523  0.53685085  0.86967350     0.75700
C1675       C  0.97307393  0.93719639  0.76650414     0.78100
Cd1676     Cd  0.95498390  0.54502337  0.79926362     1.37500
O1677       O  0.89990170  0.99724183  0.78032414    -0.56900
O1678       O  0.94131952  0.95202668  0.76484413    -0.55700
C1679       C  0.95204970  0.66194588  0.76479617     0.78100
O1680       O  0.99542307  0.97592487  0.77732051    -0.58000
O1681       O  0.89965335  0.06785149  0.81535541    -0.56500
O1682       O  0.99708914  0.55198675  0.84948489    -0.56500
O1683       O  0.92565203  0.63102304  0.76805817    -0.55700
O1684       O  0.83138005  0.55292812  0.81639419    -0.56900
C1685       C  0.75354235  0.58698835  0.75860287     0.75800
O1686       O  0.73535226  0.94172882  0.76717047    -0.58000
C1687       C  0.84693178  0.01847466  0.79885366     0.75700
C1688       C  0.78268910  0.98951483  0.86697326     0.78100
Cd1689     Cd  0.77693305  0.99882703  0.80125657     1.37500
O1690       O  0.78449239  0.58661189  0.77371691    -0.56900
O1691       O  0.76796915  0.53738115  0.85300252    -0.55700
C1692       C  0.75897990  0.90810498  0.75922989     0.78100
O1693       O  0.78659795  0.94441144  0.85058873    -0.58000
O1694       O  0.73161686  0.55160544  0.76785844    -0.56500
O1695       O  0.83110116  0.97675907  0.78327491    -0.56500
O1696       O  0.78962293  0.91196844  0.77493676    -0.55700
loop_ 
_geom_bond_atom_site_label_1 
_geom_bond_atom_site_label_2 
_geom_bond_distance 
_geom_bond_site_symmetry_2 
_ccdc_geom_bond_type 
C1            C4   1.522       .  S
C1           C50   1.496       .  S
C1          C166   1.528       .  S
C1          C201   1.499       .  S
C2           C56   1.520       .  S
C2          C113   1.522       .  S
C2          C149   1.504       .  S
C2          C310   1.494       .  S
O3            C6   1.272       .  A
O3           Cd8   2.600       .  S
C4           O13   1.271       .  A
C4            O9   1.269       .  A
O5           C11   1.270       .  A
O5           Cd8   2.427       .  S
C6           C16   1.570       .  S
C6           O14   1.265       .  A
C7           O12   1.267       .  A
C7           O10   1.272       .  A
C7          C152   1.446       .  S
Cd8          O15   2.461       .  S
Cd8          O14   2.618       .  S
Cd8          O13   2.425       .  S
Cd8           O9   2.455       .  S
Cd8          O12   2.384       .  S
Cd8          O10   2.412       .  S
C11         C108   1.524       .  S
C11          O15   1.267       .  A
C16          C37   1.569       .  S
C16          C71   1.576       .  S
C16         C125   1.586       .  S
C17          C85   1.519       .  S
C17          C18   1.560       .  S
C17          C23   1.492       .  S
C17          C21   1.521   1_554  S
C18          H25   1.082   1_554  S
C18          C19   1.393       .  D
C19          C20   1.565       .  S
C19         C704   1.575   1_554  S
C20         C872   1.585       .  S
C20         C870   1.577   1_554  S
C20        H1298   1.107       .  S
C21          H27   1.086       .  S
C21         C870   1.384       .  D
C22         C868   1.577   1_556  S
C22         C334   1.581       .  S
C22         C869   1.382       .  D
C23          H28   1.094       .  S
C23         C872   1.340       .  D
C24         C868   1.584       .  S
C24         C871   1.339   1_455  D
C24          C30   1.492       .  S
H26        C1292   1.107   1_545  S
O29          C32   1.266       .  A
O29        Cd458   2.321       .  S
C30          O35   1.259       .  A
C30         O887   1.270       .  A
O31          C37   1.274       .  A
O31         Cd34   2.620       .  S
C32          O40   1.269       .  A
C32          C43   1.420       .  S
C33          C69   1.526       .  S
C33          O38   1.272       .  A
C33          O36   1.259       .  A
Cd34         O41   2.536       .  S
Cd34         O35   2.595       .  S
Cd34        O453   2.346       .  S
Cd34        O464   2.336       .  S
Cd34        O887   2.486       .  S
Cd34        O462   2.490   1_455  S
Cd34        O460   2.545       .  S
O36        Cd458   2.537   1_545  S
C37          O41   1.260       .  A
O38        Cd458   2.518   1_545  S
O39         C878   1.270       .  A
O39        Cd882   2.498       .  S
O40        Cd458   2.353       .  S
O42          C45   1.263       .  A
O42        Cd471   2.324       .  S
C43          O52   1.264   1_565  A
C43         O472   1.263       .  A
O44          C50   1.272       .  A
O44         Cd47   2.377   1_545  S
C45         C108   1.501       .  S
C45          O53   1.272       .  A
C46          O49   1.265       .  A
C46         O475   1.262       .  A
C46         C117   1.444       .  S
Cd47         O54   2.371   1_565  S
Cd47         O52   2.350   1_565  S
Cd47         O51   2.382   1_565  S
Cd47        O466   2.318       .  S
Cd47        O477   2.440       .  S
Cd47        O472   2.365       .  S
Cd47        O473   2.381       .  S
O48         C467   1.263       .  A
O48        Cd471   2.352       .  S
O49        Cd471   2.387       .  S
C50          O54   1.267       .  A
O51         C470   1.263       .  A
O53        Cd471   2.438       .  S
O55          C58   1.272       .  A
O55         Cd60   2.581       .  S
C56          O65   1.272       .  A
C56          O61   1.269       .  A
O57          C63   1.269       .  A
O57         Cd60   2.423       .  S
C58          C68   1.564       .  S
C58          O66   1.265       .  A
C59          O64   1.267   1_565  A
C59         O486   1.271       .  A
C59         C628   1.442       .  S
Cd60         O67   2.469       .  S
Cd60         O66   2.606       .  S
Cd60         O64   2.377       .  S
Cd60        O489   2.420   1_545  S
Cd60        O485   2.442   1_545  S
Cd60        O486   2.411   1_545  S
O61        Cd484   2.445       .  S
O62         C483   1.271       .  A
O62        Cd484   2.391       .  S
C63         C107   1.525       .  S
C63          O67   1.268       .  A
O65        Cd484   2.420       .  S
C68         C301   1.567       .  S
C68         C177   1.586       .  S
C68         C655   1.573   1_545  S
C69          C70   1.565       .  S
C69          C75   1.491   1_455  S
C69          C73   1.525   1_455  S
C70          H77   1.083       .  S
C70          C71   1.395       .  D
C71         C920   1.561   1_455  S
C72          C76   1.579       .  S
C72          C74   1.573       .  S
C72         C919   1.561       .  S
C72          H78   1.107       .  S
C73         H927   1.086       .  S
C73         C922   1.385       .  D
C74         C161   1.588       .  S
C74         C921   1.387       .  D
C75          H80   1.094   1_655  S
C75         C924   1.341       .  D
C76         C923   1.340       .  D
C76          C82   1.486       .  S
H79         C921   1.087       .  S
O81          C84   1.267       .  A
O81         Cd86   2.346       .  S
C82          O91   1.271       .  A
C82          O87   1.258       .  A
O83          C89   1.272       .  A
O83         Cd86   2.609       .  S
C84          O92   1.268       .  A
C84          C97   1.423       .  S
C85          O90   1.272       .  A
C85          O88   1.259       .  A
Cd86         O93   2.525       .  S
Cd86         O92   2.342       .  S
Cd86         O91   2.493       .  S
Cd86         O87   2.559       .  S
Cd86         O90   2.516       .  S
Cd86         O88   2.521       .  S
C89         C280   1.565   1_554  S
C89          O93   1.261       .  A
O94          C97   1.262       .  A
O94         Cd99   2.361       .  S
C95         C319   1.499   1_554  S
C95         O104   1.270       .  A
C95         O100   1.263       .  A
O96         C102   1.263       .  A
O96         Cd99   2.374       .  S
C97         O105   1.264       .  A
C98         C214   1.494   1_554  S
C98         O103   1.272       .  A
C98         O313   1.268       .  A
Cd99        O106   2.377       .  S
Cd99        O105   2.375       .  S
Cd99        O104   2.426       .  S
Cd99        O100   2.337       .  S
Cd99        O103   2.365       .  S
Cd99        O313   2.350       .  S
O101        C310   1.268       .  A
O101       Cd311   2.358       .  S
C102        O106   1.268       .  A
C102        C170   1.441       .  S
C107        C156   1.494       .  S
C107        C307   1.501       .  S
C107        C322   1.523       .  S
C108        C163   1.523       .  S
C108        C208   1.497       .  S
O109        C112   1.272       .  A
O109       Cd326   2.587       .  S
C110        C319   1.522       .  S
C110        O119   1.273   1_556  A
C110        O327   1.268       .  A
O111        C117   1.268       .  A
O111       Cd114   2.372   1_554  S
C112        C122   1.564       .  S
C112        O332   1.265       .  A
C113        O116   1.268       .  A
C113        O330   1.269       .  A
Cd114       O120   2.605   1_556  S
Cd114       O118   2.421   1_556  S
Cd114       O321   2.587       .  S
Cd114       O545   2.404   1_556  S
Cd114       O543   2.426   1_556  S
Cd114       O751   2.442       .  S
Cd114       O328   2.454       .  S
O115        C322   1.270       .  A
O115       Cd750   2.446   1_545  S
O116       Cd326   2.454       .  S
C117        O545   1.272       .  A
O118        C325   1.269   1_554  A
O119       Cd538   2.439   1_544  S
O120        C324   1.265   1_554  A
O121        C541   1.272       .  A
O121       Cd538   2.414   1_544  S
C122        C139   1.569       .  S
C122        C234   1.581       .  S
C122        C604   1.575       .  S
C123        C191   1.526       .  S
C123        C124   1.523       .  S
C123        C129   1.491       .  S
C123        C127   1.567       .  S
C124        H979   1.087       .  S
C124        C973   1.383       .  D
C125        C974   1.578       .  S
C125        C972   1.383       .  D
C126        C128   1.560       .  S
C126        C973   1.574       .  S
C126        C978   1.580       .  S
C126        H980   1.107       .  S
C127        H133   1.083       .  S
C127        C128   1.397       .  D
C128        C161   1.577       .  S
C129        H134   1.094       .  S
C129        C978   1.340       .  D
C130        C974   1.586       .  S
C130        C977   1.340   1_455  D
C130        C136   1.492       .  S
H131        C972   1.087       .  S
H132        C974   1.107       .  S
O135        C138   1.266       .  A
O135       Cd140   2.361       .  S
C136        O141   1.259       .  A
C136        O993   1.270   1_455  A
O137        C143   1.272   1_655  A
O137       Cd140   2.495   1_655  S
C138        O146   1.267       .  A
C138        C151   1.422       .  S
C139        O144   1.273       .  A
C139        O142   1.261       .  A
Cd140       O147   2.534       .  S
Cd140       O146   2.330       .  S
Cd140       O141   2.582       .  S
Cd140       O144   2.620       .  S
Cd140       O142   2.539       .  S
Cd140       O993   2.508   1_455  S
C143        C175   1.522       .  S
C143        O147   1.260       .  A
O145        C984   1.270       .  A
O145       Cd988   2.483       .  S
O148        C151   1.263       .  A
O148       Cd153   2.347       .  S
C149        O158   1.272       .  A
C149        O154   1.264       .  A
O150        C156   1.273       .  A
O150       Cd153   2.385       .  S
C151        O159   1.264       .  A
C152        O157   1.261       .  A
C152        O155   1.266       .  A
Cd153       O160   2.339       .  S
Cd153       O159   2.379       .  S
Cd153       O158   2.449       .  S
Cd153       O154   2.332       .  S
Cd153       O157   2.393       .  S
Cd153       O155   2.401       .  S
C156        O160   1.265       .  A
C161        C165   1.571       .  S
C161        C195   1.561       .  S
O162        C165   1.273       .  A
O162       Cd167   2.596       .  S
C163        O172   1.271       .  A
C163        O168   1.270       .  A
O164        C170   1.267       .  A
O164       Cd167   2.371       .  S
C165        O173   1.265       .  A
C166        O171   1.270       .  A
C166        O169   1.268       .  A
Cd167       O174   2.401       .  S
Cd167       O173   2.631       .  S
Cd167       O172   2.428       .  S
Cd167       O168   2.458       .  S
Cd167       O171   2.431       .  S
Cd167       O169   2.468       .  S
C170        O174   1.272       .  A
C175        C176   1.520   1_455  S
C175        C181   1.493   1_455  S
C175        C179   1.563       .  S
C176       H1031   1.086       .  S
C176       C1025   1.383       .  D
C177        C178   1.578       .  S
C177       C1024   1.382       .  D
C178        C182   1.585       .  S
C178       C1028   1.561       .  S
C178        H608   1.107   1_545  S
C179        H185   1.083       .  S
C179        C180   1.394       .  D
C180        C546   1.572   1_545  S
C180       C1026   1.560   1_455  S
C181        H186   1.093       .  S
C181       C1030   1.342       .  D
C182       C1029   1.342       .  D
C182        C190   1.494       .  S
H183       C1024   1.086       .  S
H184        C602   1.108       .  S
O187        C190   1.259       .  A
O187       Cd192   2.591       .  S
C188        O197   1.267       .  A
C188        O193   1.266       .  A
C188        C203   1.423       .  S
O189        C195   1.271       .  A
O189       Cd192   2.601       .  S
C190        O198   1.271       .  A
C191        O196   1.273       .  A
C191        O194   1.260       .  A
Cd192       O199   2.518       .  S
Cd192       O198   2.472       .  S
Cd192       O621   2.359       .  S
Cd192       O617   2.341       .  S
Cd192       O620   2.510   1_545  S
Cd192       O618   2.532   1_545  S
O193       Cd616   2.343       .  S
O194       Cd616   2.548       .  S
C195        O199   1.261       .  A
O196       Cd616   2.509       .  S
O197       Cd616   2.352       .  S
O200        C627   1.263       .  A
O200       Cd629   2.373       .  S
C201        O210   1.272       .  A
C201        O206   1.262       .  A
O202        C208   1.272       .  A
O202       Cd205   2.381       .  S
C203        O211   1.263       .  A
C203        O624   1.263       .  A
C204        O209   1.262       .  A
C204        O631   1.267       .  A
C204        C483   1.441       .  S
Cd205       O212   2.364       .  S
Cd205       O211   2.363       .  S
Cd205       O209   2.381       .  S
Cd205       O624   2.365       .  S
Cd205       O634   2.426       .  S
Cd205       O630   2.338       .  S
Cd205       O631   2.387       .  S
O206       Cd629   2.330       .  S
O207        C628   1.267   1_545  A
O207       Cd629   2.386       .  S
C208        O212   1.267       .  A
O210       Cd629   2.439       .  S
C213        C216   1.520       .  S
C213        C262   1.494       .  S
C213        C378   1.523       .  S
C213        C413   1.498       .  S
C214        C268   1.520       .  S
C214        C325   1.522       .  S
C214        C361   1.505       .  S
O215        C218   1.272       .  A
O215       Cd220   2.587       .  S
C216        O225   1.271       .  A
C216        O221   1.269       .  A
O217        C223   1.270       .  A
O217       Cd220   2.430       .  S
C218        C228   1.567       .  S
C218        O226   1.265       .  A
C219        O224   1.267       .  A
C219        O222   1.271       .  A
C219        C364   1.444       .  S
Cd220       O227   2.463       .  S
Cd220       O226   2.611       .  S
Cd220       O225   2.425       .  S
Cd220       O221   2.436       .  S
Cd220       O224   2.374       .  S
Cd220       O222   2.418       .  S
C223        C320   1.525       .  S
C223        O227   1.267       .  A
C228        C249   1.564       .  S
C228        C283   1.570       .  S
C228        C337   1.581       .  S
C229        C297   1.519       .  S
C229        C230   1.562       .  S
C229        C235   1.491       .  S
C229        C233   1.519       .  S
C230        H237   1.083       .  S
C230        C231   1.395       .  D
C231        C232   1.562       .  S
C231        C492   1.573       .  S
C232       C1084   1.584       .  S
C232       C1082   1.578       .  S
C232       H1510   1.108       .  S
C233        H239   1.086       .  S
C233       C1082   1.383       .  D
C234       C1080   1.577       .  S
C234       C1081   1.382       .  D
C235        H240   1.094       .  S
C235       C1084   1.340       .  D
C236       C1080   1.587       .  S
C236       C1083   1.340   1_455  D
C236        C242   1.493       .  S
H238       C1504   1.107   1_545  S
O241        C244   1.267       .  A
O241       Cd670   2.330       .  S
C242       O1099   1.270       .  A
C242        O247   1.260       .  A
O243        C249   1.273       .  A
O243       Cd246   2.607       .  S
C244        O252   1.268       .  A
C244        C255   1.418       .  S
C245        C281   1.523       .  S
C245        O250   1.272       .  A
C245        O248   1.260       .  A
Cd246       O665   2.349       .  S
Cd246       O253   2.532       .  S
Cd246       O676   2.324       .  S
Cd246      O1099   2.485       .  S
Cd246       O247   2.594       .  S
Cd246       O674   2.500       .  S
Cd246       O672   2.531       .  S
O248       Cd670   2.526   1_545  S
C249        O253   1.259       .  A
O250       Cd670   2.515   1_545  S
O251       C1090   1.270       .  A
O251      Cd1094   2.483       .  S
O252       Cd670   2.336       .  S
O254        C257   1.263       .  A
O254       Cd683   2.328       .  S
C255        O264   1.263   1_565  A
C255        O684   1.263       .  A
O256        C262   1.273       .  A
O256       Cd259   2.364   1_545  S
C257        C320   1.500       .  S
C257        O265   1.273       .  A
C258        O687   1.261       .  A
C258        O261   1.267       .  A
C258        C329   1.445       .  S
Cd259       O678   2.340       .  S
Cd259       O266   2.365   1_565  S
Cd259       O689   2.432       .  S
Cd259       O264   2.353   1_565  S
Cd259       O684   2.351       .  S
Cd259       O263   2.390   1_565  S
Cd259       O685   2.384       .  S
O260        C679   1.263       .  A
O260       Cd683   2.348       .  S
O261       Cd683   2.389       .  S
C262        O266   1.267       .  A
O263        C682   1.263       .  A
O265       Cd683   2.426       .  S
O267        C270   1.272   1_554  A
O267       Cd272   2.590   1_554  S
C268        O277   1.271       .  A
C268        O273   1.270   1_556  A
O269        C275   1.270       .  A
O269       Cd272   2.416       .  S
C270        C280   1.566       .  S
C270        O278   1.265       .  A
C271        O276   1.267   1_565  A
C271        O698   1.271       .  A
C271        C840   1.443       .  S
Cd272       O279   2.464       .  S
Cd272       O278   2.609       .  S
Cd272       O701   2.418   1_545  S
Cd272       O697   2.451   1_546  S
Cd272       O276   2.380       .  S
Cd272       O698   2.406   1_545  S
O273       Cd696   2.447   1_554  S
O274        C695   1.271       .  A
O274       Cd696   2.407       .  S
C275        C319   1.526       .  S
C275        O279   1.268       .  A
O277       Cd696   2.419       .  S
C280        C443   1.573   1_546  S
C280        C389   1.585       .  S
C281        C282   1.559       .  S
C281        C287   1.494       .  S
C281        C285   1.526   1_455  S
C282        H289   1.083       .  S
C282        C283   1.393       .  D
C283       C1132   1.562   1_455  S
C284       C1131   1.562       .  S
C284        C288   1.587       .  S
C284        C286   1.581       .  S
C284        H290   1.107       .  S
C285       H1139   1.086       .  S
C285       C1134   1.386       .  D
C286        C373   1.592       .  S
C286       C1133   1.383       .  D
C287        H292   1.093       .  S
C287       C1136   1.342   1_455  D
C288       C1135   1.341       .  D
C288        C294   1.494       .  S
H291       C1133   1.087       .  S
O293        C296   1.268       .  A
O293       Cd298   2.359       .  S
C294        O303   1.273       .  A
C294        O299   1.258       .  A
O295        C301   1.272       .  A
O295       Cd298   2.603       .  S
C296        O304   1.267       .  A
C296        C309   1.422       .  S
C297        O302   1.272       .  A
C297        O300   1.258       .  A
Cd298       O305   2.538       .  S
Cd298       O304   2.327       .  S
Cd298       O303   2.489       .  S
Cd298       O299   2.583       .  S
Cd298       O302   2.502       .  S
Cd298       O300   2.533       .  S
C301        O305   1.261       .  A
O306        C309   1.261       .  A
O306       Cd311   2.351       .  S
C307        O316   1.270       .  A
C307        O312   1.263       .  A
O308        C314   1.263       .  A
O308       Cd311   2.385       .  S
C309        O317   1.263       .  A
C310        O315   1.272       .  A
Cd311       O318   2.384       .  S
Cd311       O317   2.387       .  S
Cd311       O316   2.430       .  S
Cd311       O312   2.351       .  S
Cd311       O315   2.361       .  S
C314        O318   1.267       .  A
C314        C382   1.442       .  S
C319        C368   1.494       .  S
C320        C375   1.519       .  S
C320        C420   1.497       .  S
O321        C324   1.272       .  A
C322        O331   1.272       .  A
O323        C329   1.267       .  A
O323       Cd326   2.366       .  S
C324        C334   1.564       .  S
C325        O328   1.268       .  A
Cd326       O757   2.418       .  S
Cd326       O332   2.606       .  S
Cd326       O755   2.413       .  S
Cd326       O539   2.440       .  S
Cd326       O330   2.412       .  S
O327       Cd538   2.449   1_545  S
C329        O757   1.272       .  A
O331       Cd750   2.440   1_545  S
O333        C753   1.272       .  A
O333       Cd750   2.418   1_545  S
C334        C351   1.568       .  S
C334        C816   1.572       .  S
C335        C403   1.523       .  S
C335        C336   1.521       .  S
C335        C341   1.492       .  S
C335        C339   1.564       .  S
C336       H1191   1.086       .  S
C336       C1185   1.383       .  D
C337       C1186   1.576       .  S
C337       C1184   1.383       .  D
C338       C1185   1.576       .  S
C338       C1190   1.585       .  S
C338        C340   1.562       .  S
C338       H1192   1.107       .  S
C339        H345   1.083       .  S
C339        C340   1.396       .  D
C340        C373   1.576       .  S
C341        H346   1.094       .  S
C341       C1190   1.339       .  D
C342       C1186   1.580       .  S
C342       C1189   1.340   1_455  D
C342        C348   1.484       .  S
H343       C1184   1.087       .  S
H344       C1186   1.107       .  S
O347        C350   1.267       .  A
O347       Cd352   2.351       .  S
C348       O1205   1.271   1_455  A
C348        O353   1.259       .  A
O349        C355   1.271   1_655  A
O349       Cd352   2.491   1_655  S
C350        O358   1.268       .  A
C350        C363   1.425       .  S
C351        O356   1.273       .  A
C351        O354   1.260       .  A
Cd352       O359   2.539       .  S
Cd352       O358   2.349       .  S
Cd352      O1205   2.479   1_455  S
Cd352       O353   2.567       .  S
Cd352       O356   2.626       .  S
Cd352       O354   2.531       .  S
C355        C387   1.523       .  S
C355        O359   1.260       .  A
O357       C1196   1.270       .  A
O357      Cd1200   2.509       .  S
O360        C363   1.264       .  A
O360       Cd365   2.370       .  S
C361        O370   1.271       .  A
C361        O366   1.264       .  A
O362        C368   1.273       .  A
O362       Cd365   2.368       .  S
C363        O371   1.263       .  A
C364        O369   1.262       .  A
C364        O367   1.267       .  A
Cd365       O372   2.348       .  S
Cd365       O371   2.371       .  S
Cd365       O370   2.452       .  S
Cd365       O366   2.337       .  S
Cd365       O369   2.389       .  S
Cd365       O367   2.380       .  S
C368        O372   1.266       .  A
C373        C377   1.571       .  S
C373        C407   1.566       .  S
O374        C377   1.273       .  A
O374       Cd379   2.594       .  S
C375        O384   1.271       .  A
C375        O380   1.270       .  A
O376        C382   1.267       .  A
O376       Cd379   2.381       .  S
C377        O385   1.265       .  A
C378        O383   1.270       .  A
C378        O381   1.268       .  A
Cd379       O386   2.399       .  S
Cd379       O385   2.623       .  S
Cd379       O384   2.410       .  S
Cd379       O380   2.449       .  S
Cd379       O383   2.414       .  S
Cd379       O381   2.465       .  S
C382        O386   1.271       .  A
C387        C388   1.523   1_455  S
C387        C393   1.494   1_455  S
C387        C391   1.563       .  S
C388       H1243   1.086       .  S
C388       C1237   1.382       .  D
C389        C390   1.581       .  S
C389       C1236   1.382       .  D
C390        C394   1.585       .  S
C390       C1240   1.561       .  S
C390        H820   1.107   1_545  S
C391        H397   1.083       .  S
C391        C392   1.394       .  D
C392        C758   1.573   1_545  S
C392       C1238   1.562   1_455  S
C393        H398   1.093       .  S
C393       C1242   1.341       .  D
C394       C1241   1.342       .  D
C394        C402   1.498       .  S
H395       C1236   1.086       .  S
H396        C814   1.107       .  S
O399        C402   1.259       .  A
O399       Cd404   2.607       .  S
C400        O409   1.268       .  A
C400        O405   1.266       .  A
C400        C415   1.423       .  S
O401        C407   1.272       .  A
O401       Cd404   2.604       .  S
C402        O410   1.271       .  A
C403        O408   1.273       .  A
C403        O406   1.259       .  A
Cd404       O411   2.529       .  S
Cd404       O410   2.474       .  S
Cd404       O833   2.348       .  S
Cd404       O829   2.345   1_545  S
Cd404       O832   2.505   1_545  S
Cd404       O830   2.537   1_545  S
O405       Cd828   2.346       .  S
O406       Cd828   2.541       .  S
C407        O411   1.261       .  A
O408       Cd828   2.511       .  S
O409       Cd828   2.348       .  S
O412        C839   1.263       .  A
O412       Cd841   2.362   1_545  S
C413        O422   1.273       .  A
C413        O418   1.261       .  A
O414        C420   1.272       .  A
O414       Cd417   2.391       .  S
C415        O836   1.263       .  A
C415        O423   1.263       .  A
C416        O421   1.262       .  A
C416        O843   1.267       .  A
C416        C695   1.442       .  S
Cd417       O836   2.368       .  S
Cd417       O424   2.360       .  S
Cd417       O423   2.364       .  S
Cd417       O846   2.419       .  S
Cd417       O842   2.349       .  S
Cd417       O421   2.392       .  S
Cd417       O843   2.385       .  S
O418       Cd841   2.305   1_545  S
O419        C840   1.266   1_545  A
O419       Cd841   2.385   1_545  S
C420        O424   1.266       .  A
O422       Cd841   2.449   1_545  S
C425        C428   1.521       .  S
C425        C474   1.495       .  S
C425        C590   1.526       .  S
C425        C625   1.499       .  S
C426        C480   1.519       .  S
C426        C734   1.497       .  S
C426        C537   1.526       .  S
C426        C573   1.503       .  S
O427        C430   1.273       .  A
O427       Cd432   2.607       .  S
C428        O437   1.271       .  A
C428        O433   1.270       .  A
O429        C435   1.269       .  A
O429       Cd432   2.418       .  S
C430        C440   1.573       .  S
C430        O438   1.266       .  A
C431        O436   1.267       .  A
C431        O434   1.272       .  A
C431        C576   1.443       .  S
Cd432       O439   2.467       .  S
Cd432       O438   2.624       .  S
Cd432       O437   2.422       .  S
Cd432       O433   2.447       .  S
Cd432       O436   2.370       .  S
Cd432       O434   2.412       .  S
C435        C532   1.524       .  S
C435        O439   1.268       .  A
C440        C461   1.566       .  S
C440        C495   1.573       .  S
C440        C549   1.586       .  S
C441        C509   1.520       .  S
C441        C442   1.562       .  S
C441        C447   1.490       .  S
C441        C445   1.521   1_554  S
C442        H449   1.082   1_554  S
C442        C443   1.394       .  D
C443        C444   1.562       .  S
C444       C1296   1.583       .  S
C444       C1294   1.577   1_554  S
C444        H874   1.107   1_565  S
C445        H451   1.087       .  S
C445       C1294   1.384       .  D
C446       C1292   1.575   1_556  S
C446        C758   1.585       .  S
C446       C1293   1.385       .  D
C447        H452   1.094       .  S
C447       C1296   1.340       .  D
C448       C1292   1.583       .  S
C448       C1295   1.339   1_455  D
C448        C454   1.491       .  S
H450        C868   1.108       .  S
O453        C456   1.266       .  A
C454       O1311   1.271   1_455  A
C454        O459   1.259       .  A
O455        C461   1.273       .  A
O455       Cd458   2.614       .  S
C456        O464   1.267       .  A
C456        C467   1.420       .  S
C457        C493   1.523       .  S
C457        O462   1.272   1_455  A
C457        O460   1.261       .  A
Cd458       O465   2.541       .  S
Cd458      O1311   2.475   1_455  S
Cd458       O459   2.589       .  S
C461        O465   1.260       .  A
O463       C1302   1.271       .  A
O463      Cd1306   2.466       .  S
O466        C469   1.262       .  A
C467        O476   1.264       .  A
O468        C474   1.273       .  A
O468       Cd471   2.377       .  S
C469        C532   1.499       .  S
C469        O477   1.273       .  A
C470        O473   1.268   1_545  A
C470        C541   1.444       .  S
Cd471       O478   2.353       .  S
Cd471       O476   2.366       .  S
Cd471       O475   2.396       .  S
C474        O478   1.267       .  A
O479        C482   1.273       .  A
O479       Cd484   2.585       .  S
C480        O489   1.271       .  A
C480        O485   1.270       .  A
O481        C487   1.270       .  A
O481       Cd484   2.425       .  S
C482        C492   1.566       .  S
C482        O490   1.264       .  A
C483        O488   1.268       .  A
Cd484       O491   2.460       .  S
Cd484       O490   2.616       .  S
Cd484       O488   2.366       .  S
C487        C531   1.527       .  S
C487        O491   1.268       .  A
C492        C725   1.559       .  S
C492        C601   1.587       .  S
C493        C494   1.562       .  S
C493        C499   1.495   1_455  S
C493        C497   1.523   1_455  S
C494        H501   1.083       .  S
C494        C495   1.394       .  D
C495       C1344   1.563   1_455  S
C496       C1343   1.561       .  S
C496        C500   1.578       .  S
C496        C498   1.576       .  S
C496        H502   1.107       .  S
C497       H1351   1.087       .  S
C497       C1346   1.382       .  D
C498        C585   1.582       .  S
C498       C1345   1.383       .  D
C499        H504   1.093   1_655  S
C499       C1348   1.342       .  D
C500       C1347   1.342       .  D
C500        C506   1.487       .  S
H503       C1345   1.087       .  S
O505        C508   1.267       .  A
O505       Cd510   2.354       .  S
C506        O515   1.270       .  A
C506        O511   1.259       .  A
O507        C513   1.272       .  A
O507       Cd510   2.609       .  S
C508        O516   1.268       .  A
C508        C521   1.425       .  S
C509        O514   1.272       .  A
C509        O512   1.259       .  A
Cd510       O517   2.512       .  S
Cd510       O516   2.343       .  S
Cd510       O515   2.483       .  S
Cd510       O511   2.573       .  S
Cd510       O514   2.503       .  S
Cd510       O512   2.529       .  S
C513        C704   1.562   1_554  S
C513        O517   1.260       .  A
O518        C521   1.261       .  A
O518       Cd523   2.366       .  S
C519        C743   1.499   1_554  S
C519        O528   1.271       .  A
C519        O524   1.262       .  A
O520        C526   1.263       .  A
O520       Cd523   2.389       .  S
C521        O529   1.263       .  A
C522        C638   1.497   1_554  S
C522        O527   1.272       .  A
C522        O737   1.267       .  A
Cd523       O530   2.379       .  S
Cd523       O529   2.389       .  S
Cd523       O528   2.444       .  S
Cd523       O524   2.316       .  S
Cd523       O527   2.373       .  S
Cd523       O737   2.372       .  S
O525        C734   1.267       .  A
O525       Cd735   2.361       .  S
C526        O530   1.265       .  A
C526        C594   1.443       .  S
C531        C731   1.500       .  S
C531        C746   1.519       .  S
C531        C580   1.494       .  S
C532        C587   1.519       .  S
C532        C632   1.495       .  S
O533        C536   1.273       .  A
O533       Cd750   2.618       .  S
C534        C743   1.520       .  S
C534        O543   1.271   1_556  A
C534        O751   1.269       .  A
O535        C541   1.268   1_565  A
O535       Cd538   2.374   1_554  S
C536        C546   1.575       .  S
C536        O756   1.265       .  A
C537        O754   1.269       .  A
C537        O540   1.268       .  A
Cd538       O745   2.609       .  S
Cd538       O544   2.635   1_556  S
Cd538       O542   2.432   1_556  S
Cd538       O752   2.471       .  S
O539        C746   1.269       .  A
O540       Cd750   2.476       .  S
O542        C749   1.270   1_554  A
O544        C748   1.265   1_554  A
C546        C563   1.569       .  S
C546        C658   1.586       .  S
C547        C615   1.522       .  S
C547        C548   1.521       .  S
C547        C553   1.492       .  S
C547        C551   1.563       .  S
C548       H1403   1.086       .  S
C548       C1397   1.384       .  D
C549       C1398   1.581       .  S
C549       C1396   1.384       .  D
C550       C1397   1.579       .  S
C550       C1402   1.581       .  S
C550        C552   1.561       .  S
C550       H1404   1.107       .  S
C551        H557   1.083       .  S
C551        C552   1.396       .  D
C552        C585   1.575       .  S
C553        H558   1.093       .  S
C553       C1402   1.340       .  D
C554       C1398   1.584       .  S
C554       C1401   1.339   1_455  D
C554        C560   1.493       .  S
H555       C1396   1.087       .  S
H556       C1398   1.107       .  S
O559        C562   1.266       .  A
O559       Cd564   2.333       .  S
C560       O1417   1.272   1_455  A
C560        O565   1.258       .  A
O561        C567   1.273   1_655  A
O561       Cd564   2.517   1_655  S
C562        O570   1.268       .  A
C562        C575   1.423       .  S
C563        O568   1.274       .  A
C563        O566   1.259       .  A
Cd564       O571   2.544       .  S
Cd564       O570   2.347       .  S
Cd564      O1417   2.492   1_455  S
Cd564       O565   2.588       .  S
Cd564       O568   2.615       .  S
Cd564       O566   2.545       .  S
C567        C599   1.527       .  S
C567        O571   1.260       .  A
O569       C1408   1.271       .  A
O569      Cd1412   2.480       .  S
O572        C575   1.263       .  A
O572       Cd577   2.368       .  S
C573        O582   1.271       .  A
C573        O578   1.263       .  A
O574        C580   1.271       .  A
O574       Cd577   2.373       .  S
C575        O583   1.264       .  A
C576        O581   1.261       .  A
C576        O579   1.268       .  A
Cd577       O584   2.361       .  S
Cd577       O583   2.365       .  S
Cd577       O582   2.441       .  S
Cd577       O578   2.344       .  S
Cd577       O581   2.387       .  S
Cd577       O579   2.388       .  S
C580        O584   1.267       .  A
C585        C589   1.567       .  S
C585        C619   1.566       .  S
O586        C589   1.272       .  A
O586       Cd591   2.583       .  S
C587        O596   1.271       .  A
C587        O592   1.269       .  A
O588        C594   1.268       .  A
O588       Cd591   2.377       .  S
C589        O597   1.265       .  A
C590        O595   1.269       .  A
C590        O593   1.268       .  A
Cd591       O598   2.409       .  S
Cd591       O597   2.621       .  S
Cd591       O596   2.412       .  S
Cd591       O592   2.443       .  S
Cd591       O595   2.425       .  S
Cd591       O593   2.464       .  S
C594        O598   1.271       .  A
C599        C600   1.523   1_455  S
C599        C605   1.491   1_455  S
C599        C603   1.565       .  S
C600       H1455   1.086       .  S
C600       C1449   1.384       .  D
C601        C602   1.580       .  S
C601       C1448   1.386       .  D
C602        C606   1.583       .  S
C602       C1452   1.560       .  S
C603        H609   1.083       .  S
C603        C604   1.397       .  D
C604       C1450   1.560   1_455  S
C605        H610   1.093   1_655  S
C605       C1454   1.341       .  D
C606       C1453   1.341       .  D
C606        C614   1.493       .  S
H607       C1448   1.086       .  S
O611        C614   1.258       .  A
O611       Cd616   2.595       .  S
C612        O621   1.268       .  A
C612        O617   1.266       .  A
C612        C627   1.424       .  S
O613        C619   1.272       .  A
O613       Cd616   2.619       .  S
C614        O622   1.272       .  A
C615        O620   1.272       .  A
C615        O618   1.259       .  A
Cd616       O623   2.530       .  S
Cd616       O622   2.466       .  S
C619        O623   1.262       .  A
C625        O634   1.272       .  A
C625        O630   1.263       .  A
O626        C632   1.273       .  A
O626       Cd629   2.373   1_565  S
C627        O635   1.263   1_545  A
C628        O633   1.262       .  A
Cd629       O636   2.370   1_545  S
Cd629       O635   2.358   1_545  S
Cd629       O633   2.385   1_545  S
C632        O636   1.266       .  A
C637        C640   1.521       .  S
C637        C686   1.494       .  S
C637        C802   1.524       .  S
C637        C837   1.500       .  S
C638        C692   1.521       .  S
C638        C749   1.527       .  S
C638        C785   1.502       .  S
O639        C642   1.272       .  A
O639       Cd644   2.593       .  S
C640        O649   1.271       .  A
C640        O645   1.270       .  A
O641        C647   1.270       .  A
O641       Cd644   2.413       .  S
C642        C652   1.571       .  S
C642        O650   1.266       .  A
C643        O648   1.267       .  A
C643        O646   1.272       .  A
C643        C788   1.444       .  S
Cd644       O651   2.463       .  S
Cd644       O650   2.624       .  S
Cd644       O649   2.423       .  S
Cd644       O645   2.447       .  S
Cd644       O648   2.375       .  S
Cd644       O646   2.418       .  S
C647        C744   1.524       .  S
C647        O651   1.268       .  A
C652        C673   1.564       .  S
C652        C707   1.572       .  S
C652        C761   1.585       .  S
C653        C721   1.522       .  S
C653        C654   1.563       .  S
C653        C659   1.489       .  S
C653        C657   1.524       .  S
C654        H661   1.083       .  S
C654        C655   1.396       .  D
C655        C656   1.561       .  S
C656       C1508   1.584       .  S
C656       C1506   1.576       .  S
C656       H1086   1.107   1_565  S
C657        H663   1.087       .  S
C657       C1506   1.384       .  D
C658       C1504   1.578       .  S
C658       C1505   1.384       .  D
C659        H664   1.094       .  S
C659       C1508   1.339       .  D
C660       C1504   1.583       .  S
C660       C1507   1.340   1_455  D
C660        C666   1.488       .  S
H662       C1080   1.107       .  S
O665        C668   1.267       .  A
C666       O1523   1.271       .  A
C666        O671   1.259       .  A
O667        C673   1.273       .  A
O667       Cd670   2.610       .  S
C668        O676   1.268       .  A
C668        C679   1.419       .  S
C669        C705   1.521       .  S
C669        O674   1.272       .  A
C669        O672   1.260       .  A
Cd670       O677   2.534       .  S
Cd670      O1523   2.476       .  S
Cd670       O671   2.578       .  S
C673        O677   1.260       .  A
O675       C1514   1.272       .  A
O675      Cd1518   2.471       .  S
O678        C681   1.262       .  A
C679        O688   1.263       .  A
O680        C686   1.273       .  A
O680       Cd683   2.380       .  S
C681        C744   1.501       .  S
C681        O689   1.272       .  A
C682        O685   1.268   1_545  A
C682        C753   1.445       .  S
Cd683       O690   2.346       .  S
Cd683       O688   2.368       .  S
Cd683       O687   2.401       .  S
C686        O690   1.266       .  A
O691        C694   1.274   1_554  A
O691       Cd696   2.606   1_554  S
C692        O701   1.272       .  A
C692        O697   1.269   1_556  A
O693        C699   1.270       .  A
O693       Cd696   2.430       .  S
C694        C704   1.573       .  S
C694        O702   1.265       .  A
C695        O700   1.267       .  A
Cd696       O703   2.461       .  S
Cd696       O702   2.624       .  S
Cd696       O700   2.365       .  S
C699        C743   1.527       .  S
C699        O703   1.269       .  A
C704        C813   1.590       .  S
C705        C706   1.559       .  S
C705        C711   1.494   1_455  S
C705        C709   1.523   1_455  S
C706        H713   1.083       .  S
C706        C707   1.393       .  D
C707       C1556   1.563   1_455  S
C708       C1555   1.563       .  S
C708        C712   1.582       .  S
C708        C710   1.577       .  S
C708        H714   1.107       .  S
C709       H1563   1.086       .  S
C709       C1558   1.384       .  D
C710        C797   1.585       .  S
C710       C1557   1.382       .  D
C711        H716   1.093   1_655  S
C711       C1560   1.343       .  D
C712       C1559   1.342       .  D
C712        C718   1.493       .  S
H715       C1557   1.087       .  S
O717        C720   1.266       .  A
O717       Cd722   2.350       .  S
C718        O727   1.271       .  A
C718        O723   1.259       .  A
O719        C725   1.270       .  A
O719       Cd722   2.614       .  S
C720        O728   1.268       .  A
C720        C733   1.425       .  S
C721        O726   1.272       .  A
C721        O724   1.259       .  A
Cd722       O729   2.507       .  S
Cd722       O728   2.355       .  S
Cd722       O727   2.490       .  S
Cd722       O723   2.583       .  S
Cd722       O726   2.508       .  S
Cd722       O724   2.539       .  S
C725        O729   1.261       .  A
O730        C733   1.262       .  A
O730       Cd735   2.368       .  S
C731        O740   1.271       .  A
C731        O736   1.263       .  A
O732        C738   1.263       .  A
O732       Cd735   2.389       .  S
C733        O741   1.263       .  A
C734        O739   1.273       .  A
Cd735       O742   2.377       .  S
Cd735       O741   2.372       .  S
Cd735       O740   2.435       .  S
Cd735       O736   2.333       .  S
Cd735       O739   2.377       .  S
C738        O742   1.266       .  A
C738        C806   1.444       .  S
C743        C792   1.495       .  S
C744        C799   1.520       .  S
C744        C844   1.495       .  S
O745        C748   1.273       .  A
C746        O755   1.272       .  A
O747        C753   1.267   1_565  A
O747       Cd750   2.369       .  S
C748        C758   1.574       .  S
C749        O752   1.268       .  A
Cd750       O756   2.627       .  S
Cd750       O754   2.426       .  S
C758        C775   1.564       .  S
C759        C827   1.522       .  S
C759        C760   1.521       .  S
C759        C765   1.490       .  S
C759        C763   1.565       .  S
C760       H1615   1.087       .  S
C760       C1609   1.382       .  D
C761       C1610   1.578       .  S
C761       C1608   1.384       .  D
C762       C1609   1.581       .  S
C762       C1614   1.585       .  S
C762        C764   1.561       .  S
C762       H1616   1.107       .  S
C763        H769   1.083       .  S
C763        C764   1.397       .  D
C764        C797   1.576       .  S
C765        H770   1.093       .  S
C765       C1614   1.340       .  D
C766       C1610   1.583       .  S
C766       C1613   1.340   1_455  D
C766        C772   1.493       .  S
H767       C1608   1.087       .  S
H768       C1610   1.107       .  S
O771        C774   1.266       .  A
O771       Cd776   2.324       .  S
C772       O1629   1.271   1_455  A
C772        O777   1.258       .  A
O773        C779   1.273       .  A
O773       Cd776   2.527       .  S
C774        O782   1.269       .  A
C774        C787   1.422       .  S
C775        O780   1.273       .  A
C775        O778   1.260       .  A
Cd776       O783   2.524       .  S
Cd776       O782   2.354       .  S
Cd776      O1629   2.475   1_455  S
Cd776       O777   2.591       .  S
Cd776       O780   2.599       .  S
Cd776       O778   2.540       .  S
C779        C811   1.524       .  S
C779        O783   1.259       .  A
O781       C1620   1.272       .  A
O781      Cd1624   2.477       .  S
O784        C787   1.263       .  A
O784       Cd789   2.372       .  S
C785        O794   1.271       .  A
C785        O790   1.262       .  A
O786        C792   1.272       .  A
O786       Cd789   2.373       .  S
C787        O795   1.263       .  A
C788        O793   1.262       .  A
C788        O791   1.267       .  A
Cd789       O796   2.370       .  S
Cd789       O795   2.354       .  S
Cd789       O794   2.437       .  S
Cd789       O790   2.349       .  S
Cd789       O793   2.389       .  S
Cd789       O791   2.386       .  S
C792        O796   1.267       .  A
C797        C801   1.568       .  S
C797        C831   1.570       .  S
O798        C801   1.272       .  A
O798       Cd803   2.590       .  S
C799        O808   1.271       .  A
C799        O804   1.269       .  A
O800        C806   1.268       .  A
O800       Cd803   2.374       .  S
C801        O809   1.265       .  A
C802        O807   1.270       .  A
C802        O805   1.268       .  A
Cd803       O810   2.415       .  S
Cd803       O809   2.617       .  S
Cd803       O808   2.416       .  S
Cd803       O804   2.448       .  S
Cd803       O807   2.421       .  S
Cd803       O805   2.461       .  S
C806        O810   1.271       .  A
C811        C812   1.523   1_455  S
C811        C817   1.492   1_455  S
C811        C815   1.563       .  S
C812       H1667   1.086       .  S
C812       C1661   1.385       .  D
C813        C814   1.581       .  S
C813       C1660   1.383       .  D
C814        C818   1.585       .  S
C814       C1664   1.559       .  S
C815        H821   1.083       .  S
C815        C816   1.396       .  D
C816       C1662   1.558   1_455  S
C817        H822   1.093   1_655  S
C817       C1666   1.341       .  D
C818       C1665   1.342       .  D
C818        C826   1.493       .  S
H819       C1660   1.086       .  S
O823        C826   1.258       .  A
O823       Cd828   2.587       .  S
C824        O833   1.268       .  A
C824        O829   1.266   1_545  A
C824        C839   1.422       .  S
O825        C831   1.273       .  A
O825       Cd828   2.617       .  S
C826        O834   1.272       .  A
C827        O832   1.273       .  A
C827        O830   1.259       .  A
Cd828       O835   2.545       .  S
Cd828       O834   2.488       .  S
C831        O835   1.262       .  A
C837        O846   1.271       .  A
C837        O842   1.264       .  A
O838        C844   1.272       .  A
O838       Cd841   2.381       .  S
C839        O847   1.264   1_545  A
C840        O845   1.263       .  A
Cd841       O848   2.356       .  S
Cd841       O847   2.369       .  S
Cd841       O845   2.387       .  S
C844        O848   1.266       .  A
C849        C852   1.520       .  S
C849        C898   1.494       .  S
C849       C1014   1.524       .  S
C849       C1049   1.498       .  S
C850        C904   1.522       .  S
C850       C1158   1.494       .  S
C850        C961   1.522       .  S
C850        C997   1.504       .  S
O851        C854   1.272       .  A
O851       Cd856   2.592       .  S
C852        O861   1.272       .  A
C852        O857   1.269       .  A
O853        C859   1.270       .  A
O853       Cd856   2.431       .  S
C854        C864   1.569       .  S
C854        O862   1.266       .  A
C855        O860   1.267       .  A
C855        O858   1.271       .  A
C855       C1000   1.445       .  S
Cd856       O863   2.464       .  S
Cd856       O862   2.616       .  S
Cd856       O861   2.419       .  S
Cd856       O857   2.440       .  S
Cd856       O860   2.377       .  S
Cd856       O858   2.423       .  S
C859        C956   1.525       .  S
C859        O863   1.267       .  A
C864        C885   1.565       .  S
C864        C919   1.572       .  S
C864        C973   1.584       .  S
C865        C933   1.521       .  S
C865        C866   1.563       .  S
C865        C871   1.491       .  S
C865        C869   1.519   1_654  S
C866        H873   1.082   1_554  S
C866        C867   1.395       .  D
C867        C868   1.563   1_655  S
C867       C1552   1.575   1_554  S
C869        H875   1.086       .  S
C870       C1182   1.582       .  S
C871        H876   1.094       .  S
C872        C878   1.492       .  S
O877        C880   1.266       .  A
O877      Cd1306   2.322       .  S
C878        O883   1.260       .  A
O879        C885   1.274       .  A
O879       Cd882   2.604       .  S
C880        O888   1.268       .  A
C880        C891   1.419       .  S
C881        C917   1.525       .  S
C881        O886   1.272       .  A
C881        O884   1.260       .  A
Cd882      O1301   2.357       .  S
Cd882       O889   2.535       .  S
Cd882      O1312   2.314       .  S
Cd882       O883   2.585       .  S
Cd882      O1310   2.496       .  S
Cd882      O1308   2.541       .  S
O884      Cd1306   2.540   1_545  S
C885        O889   1.259       .  A
O886      Cd1306   2.509   1_545  S
O888      Cd1306   2.350       .  S
O890        C893   1.263       .  A
O890      Cd1319   2.327       .  S
C891        O900   1.263   1_565  A
C891       O1320   1.263       .  A
O892        C898   1.273       .  A
O892       Cd895   2.365   1_545  S
C893        C956   1.502       .  S
C893        O901   1.272       .  A
C894       O1323   1.262       .  A
C894        O897   1.266       .  A
C894        C965   1.445       .  S
Cd895      O1314   2.346       .  S
Cd895       O902   2.366   1_565  S
Cd895      O1325   2.435       .  S
Cd895       O900   2.345   1_565  S
Cd895      O1320   2.360       .  S
Cd895       O899   2.389   1_565  S
Cd895      O1321   2.374       .  S
O896       C1315   1.262       .  A
O896      Cd1319   2.336       .  S
O897      Cd1319   2.378       .  S
C898        O902   1.267       .  A
O899       C1318   1.263       .  A
O901      Cd1319   2.434       .  S
O903        C906   1.272       .  A
O903       Cd908   2.595       .  S
C904        O913   1.272       .  A
C904        O909   1.270       .  A
O905        C911   1.270       .  A
O905       Cd908   2.410       .  S
C906        C916   1.568       .  S
C906        O914   1.265       .  A
C907        O912   1.268       .  A
C907       O1334   1.270   1_545  A
C907       C1476   1.444   1_545  S
Cd908       O915   2.467       .  S
Cd908       O914   2.613       .  S
Cd908      O1337   2.429   1_545  S
Cd908      O1333   2.443   1_545  S
Cd908       O912   2.394       .  S
Cd908      O1334   2.400   1_545  S
O909      Cd1332   2.448       .  S
O910       C1331   1.271       .  A
O910      Cd1332   2.403       .  S
C911        C955   1.524       .  S
C911        O915   1.268       .  A
O913      Cd1332   2.426       .  S
C916       C1149   1.565       .  S
C916       C1503   1.575   1_545  S
C916       C1025   1.586       .  S
C917        C918   1.562       .  S
C917        C923   1.494       .  S
C917        C921   1.527       .  S
C918        H925   1.083       .  S
C918        C919   1.395       .  D
C920        C924   1.587       .  S
C920        C922   1.582       .  S
C920        H926   1.107       .  S
C922       C1009   1.593       .  S
C923        H928   1.093       .  S
C924        C930   1.494       .  S
O929        C932   1.267       .  A
O929       Cd934   2.349       .  S
C930        O939   1.273       .  A
C930        O935   1.258       .  A
O931        C937   1.272       .  A
O931       Cd934   2.607       .  S
C932        O940   1.267       .  A
C932        C945   1.421       .  S
C933        O938   1.272       .  A
C933        O936   1.259       .  A
Cd934       O941   2.540       .  S
Cd934       O940   2.332       .  S
Cd934       O939   2.483       .  S
Cd934       O935   2.584       .  S
Cd934       O938   2.495       .  S
Cd934       O936   2.541       .  S
C937       C1128   1.567   1_554  S
C937        O941   1.261       .  A
O942        C945   1.262       .  A
O942       Cd947   2.356       .  S
C943       C1167   1.503   1_554  S
C943        O952   1.270       .  A
C943        O948   1.263       .  A
O944        C950   1.263       .  A
O944       Cd947   2.386       .  S
C945        O953   1.263       .  A
C946       C1062   1.493   1_554  S
C946        O951   1.272       .  A
C946       O1161   1.268       .  A
Cd947       O954   2.388       .  S
Cd947       O953   2.378       .  S
Cd947       O952   2.438       .  S
Cd947       O948   2.353       .  S
Cd947       O951   2.361       .  S
Cd947      O1161   2.364       .  S
O949       C1158   1.268       .  A
O949      Cd1159   2.341       .  S
C950        O954   1.267       .  A
C950       C1018   1.443       .  S
C955       C1155   1.499       .  S
C955       C1170   1.521       .  S
C955       C1004   1.495       .  S
C956       C1011   1.520       .  S
C956       C1056   1.497       .  S
O957        C960   1.272       .  A
O957      Cd1174   2.585       .  S
C958       C1167   1.524       .  S
C958        O967   1.272   1_556  A
C958       O1175   1.270       .  A
O959        C965   1.268       .  A
O959       Cd962   2.356   1_554  S
C960        C970   1.563       .  S
C960       O1180   1.264       .  A
C961       O1178   1.269       .  A
C961        O964   1.268       .  A
Cd962      O1169   2.592       .  S
Cd962      O1393   2.420   1_556  S
Cd962       O968   2.611   1_556  S
Cd962      O1391   2.416   1_556  S
Cd962      O1599   2.445       .  S
Cd962       O966   2.423   1_556  S
Cd962      O1176   2.458       .  S
O963       C1170   1.269       .  A
O963      Cd1598   2.441   1_545  S
O964      Cd1174   2.452       .  S
C965       O1393   1.272       .  A
O966       C1173   1.270   1_554  A
O967      Cd1386   2.447   1_544  S
O968       C1172   1.264   1_554  A
O969       C1389   1.272       .  A
O969      Cd1386   2.420   1_544  S
C970        C987   1.566       .  S
C970       C1082   1.583       .  S
C970       C1452   1.573       .  S
C971       C1039   1.525       .  S
C971        C972   1.522   1_655  S
C971        C977   1.492       .  S
C971        C975   1.564       .  S
C974        C976   1.561   1_455  S
C975        H981   1.083       .  S
C975        C976   1.397       .  D
C976       C1009   1.576       .  S
C977        H982   1.094       .  S
C978        C984   1.483       .  S
O983        C986   1.267       .  A
O983       Cd988   2.345       .  S
C984        O989   1.258       .  A
O985        C991   1.272       .  A
O985       Cd988   2.496       .  S
C986        O994   1.268       .  A
C986        C999   1.424       .  S
C987        O992   1.272       .  A
C987        O990   1.261       .  A
Cd988       O995   2.531       .  S
Cd988       O994   2.347       .  S
Cd988       O989   2.561       .  S
Cd988       O992   2.623       .  S
Cd988       O990   2.531       .  S
C991       C1023   1.522       .  S
C991        O995   1.260       .  A
O996        C999   1.263       .  A
O996      Cd1001   2.364       .  S
C997       O1006   1.271       .  A
C997       O1002   1.264       .  A
O998       C1004   1.272       .  A
O998      Cd1001   2.372       .  S
C999       O1007   1.264       .  A
C1000      O1005   1.262       .  A
C1000      O1003   1.267       .  A
Cd1001     O1008   2.347       .  S
Cd1001     O1007   2.371       .  S
Cd1001     O1006   2.447       .  S
Cd1001     O1002   2.341       .  S
Cd1001     O1005   2.395       .  S
Cd1001     O1003   2.384       .  S
C1004      O1008   1.267       .  A
C1009      C1013   1.571       .  S
C1009      C1043   1.568       .  S
O1010      C1013   1.273       .  A
O1010     Cd1015   2.596       .  S
C1011      O1020   1.271       .  A
C1011      O1016   1.270       .  A
O1012      C1018   1.267       .  A
O1012     Cd1015   2.379       .  S
C1013      O1021   1.265       .  A
C1014      O1019   1.269       .  A
C1014      O1017   1.268       .  A
Cd1015     O1022   2.400       .  S
Cd1015     O1021   2.623       .  S
Cd1015     O1020   2.417       .  S
Cd1015     O1016   2.451       .  S
Cd1015     O1019   2.420       .  S
Cd1015     O1017   2.467       .  S
C1018      O1022   1.271       .  A
C1023      C1024   1.522       .  S
C1023      C1029   1.493       .  S
C1023      C1027   1.564       .  S
C1025      C1026   1.580       .  S
C1026      C1030   1.585       .  S
C1026      H1456   1.107   1_545  S
C1027      H1033   1.083       .  S
C1027      C1028   1.394       .  D
C1028      C1394   1.574   1_545  S
C1029      H1034   1.093       .  S
C1030      C1038   1.497       .  S
H1032      C1450   1.107       .  S
O1035      C1038   1.258       .  A
O1035     Cd1040   2.605       .  S
C1036      O1045   1.268       .  A
C1036      O1041   1.266       .  A
C1036      C1051   1.425       .  S
O1037      C1043   1.272       .  A
O1037     Cd1040   2.608       .  S
C1038      O1046   1.271       .  A
C1039      O1044   1.272       .  A
C1039      O1042   1.260       .  A
Cd1040     O1047   2.534       .  S
Cd1040     O1046   2.476       .  S
Cd1040     O1469   2.352       .  S
Cd1040     O1465   2.354   1_545  S
Cd1040     O1468   2.509   1_545  S
Cd1040     O1466   2.540   1_545  S
O1041     Cd1464   2.346       .  S
O1042     Cd1464   2.549       .  S
C1043      O1047   1.262       .  A
O1044     Cd1464   2.505       .  S
O1045     Cd1464   2.360       .  S
O1048      C1475   1.263       .  A
O1048     Cd1477   2.362       .  S
C1049      O1058   1.273       .  A
C1049      O1054   1.262       .  A
O1050      C1056   1.272       .  A
O1050     Cd1053   2.386       .  S
C1051      O1472   1.263       .  A
C1051      O1059   1.263       .  A
C1052      O1057   1.262       .  A
C1052      O1479   1.266       .  A
C1052      C1331   1.442       .  S
Cd1053     O1472   2.378       .  S
Cd1053     O1060   2.365       .  S
Cd1053     O1059   2.363       .  S
Cd1053     O1482   2.422       .  S
Cd1053     O1478   2.341       .  S
Cd1053     O1057   2.391       .  S
Cd1053     O1479   2.383       .  S
O1054     Cd1477   2.310       .  S
O1055      C1476   1.265   1_545  A
O1055     Cd1477   2.392       .  S
C1056      O1060   1.267       .  A
O1058     Cd1477   2.446       .  S
C1061      C1064   1.522       .  S
C1061      C1110   1.498       .  S
C1061      C1226   1.528       .  S
C1061      C1261   1.501       .  S
C1062      C1116   1.521       .  S
C1062      C1173   1.524       .  S
C1062      C1209   1.503       .  S
O1063      C1066   1.272       .  A
O1063     Cd1068   2.599       .  S
C1064      O1073   1.271       .  A
C1064      O1069   1.269       .  A
O1065      C1071   1.269       .  A
O1065     Cd1068   2.426       .  S
C1066      C1076   1.569       .  S
C1066      O1074   1.265       .  A
C1067      O1072   1.268       .  A
C1067      O1070   1.272       .  A
C1067      C1212   1.444       .  S
Cd1068     O1075   2.462       .  S
Cd1068     O1074   2.614       .  S
Cd1068     O1073   2.437       .  S
Cd1068     O1069   2.447       .  S
Cd1068     O1072   2.382       .  S
Cd1068     O1070   2.397       .  S
C1071      C1168   1.525       .  S
C1071      O1075   1.268       .  A
C1076      C1097   1.567       .  S
C1076      C1131   1.576       .  S
C1076      C1185   1.583       .  S
C1077      C1145   1.519       .  S
C1077      C1078   1.560       .  S
C1077      C1083   1.491       .  S
C1077      C1081   1.520   1_655  S
C1078      H1085   1.082       .  S
C1078      C1079   1.394       .  D
C1079      C1080   1.565   1_655  S
C1079      C1340   1.575       .  S
C1081      H1087   1.086       .  S
C1083      H1088   1.094       .  S
C1084      C1090   1.490       .  S
O1089      C1092   1.266       .  A
O1089     Cd1518   2.314       .  S
C1090      O1095   1.258       .  A
O1091      C1097   1.273       .  A
O1091     Cd1094   2.617       .  S
C1092      O1100   1.269       .  A
C1092      C1103   1.421       .  S
C1093      C1129   1.523       .  S
C1093      O1098   1.272       .  A
C1093      O1096   1.259       .  A
Cd1094     O1513   2.347       .  S
Cd1094     O1101   2.537       .  S
Cd1094     O1524   2.334       .  S
Cd1094     O1095   2.586       .  S
Cd1094     O1522   2.497       .  S
Cd1094     O1520   2.537       .  S
O1096     Cd1518   2.532   1_545  S
C1097      O1101   1.261       .  A
O1098     Cd1518   2.511   1_545  S
O1100     Cd1518   2.358       .  S
O1102      C1105   1.263       .  A
O1102     Cd1531   2.325       .  S
C1103      O1112   1.264   1_565  A
C1103      O1532   1.263       .  A
O1104      C1110   1.272       .  A
O1104     Cd1107   2.387   1_545  S
C1105      C1168   1.503       .  S
C1105      O1113   1.272       .  A
C1106      O1535   1.262       .  A
C1106      O1109   1.265       .  A
C1106      C1177   1.442       .  S
Cd1107     O1526   2.325       .  S
Cd1107     O1114   2.375   1_565  S
Cd1107     O1537   2.444       .  S
Cd1107     O1112   2.345   1_565  S
Cd1107     O1532   2.374       .  S
Cd1107     O1111   2.383   1_565  S
Cd1107     O1533   2.379       .  S
O1108      C1527   1.262       .  A
O1108     Cd1531   2.349       .  S
O1109     Cd1531   2.372       .  S
C1110      O1114   1.267       .  A
O1111      C1530   1.263       .  A
O1113     Cd1531   2.445       .  S
O1115      C1118   1.273   1_554  A
O1115     Cd1120   2.593   1_554  S
C1116      O1125   1.272       .  A
C1116      O1121   1.269   1_556  A
O1117      C1123   1.269       .  A
O1117     Cd1120   2.434       .  S
C1118      C1128   1.569       .  S
C1118      O1126   1.265       .  A
C1119      O1124   1.267   1_565  A
C1119      O1546   1.271       .  A
C1119      C1688   1.444       .  S
Cd1120     O1127   2.464       .  S
Cd1120     O1126   2.615       .  S
Cd1120     O1549   2.420   1_545  S
Cd1120     O1545   2.449   1_546  S
Cd1120     O1124   2.373       .  S
Cd1120     O1546   2.420   1_545  S
O1121     Cd1544   2.445   1_554  S
O1122      C1543   1.271       .  A
O1122     Cd1544   2.401       .  S
C1123      C1167   1.525       .  S
C1123      O1127   1.268       .  A
O1125     Cd1544   2.416       .  S
C1128      C1291   1.573   1_546  S
C1128      C1237   1.588       .  S
C1129      C1130   1.564       .  S
C1129      C1135   1.492       .  S
C1129      C1133   1.523       .  S
C1130      H1137   1.083       .  S
C1130      C1131   1.395       .  D
C1132      C1136   1.579       .  S
C1132      C1134   1.575       .  S
C1132      H1138   1.107       .  S
C1134      C1221   1.588       .  S
C1135      H1140   1.093       .  S
C1136      C1142   1.487       .  S
O1141      C1144   1.267       .  A
O1141     Cd1146   2.361       .  S
C1142      O1151   1.271       .  A
C1142      O1147   1.259       .  A
O1143      C1149   1.271       .  A
O1143     Cd1146   2.606       .  S
C1144      O1152   1.268       .  A
C1144      C1157   1.424       .  S
C1145      O1150   1.271       .  A
C1145      O1148   1.259       .  A
Cd1146     O1153   2.529       .  S
Cd1146     O1152   2.333       .  S
Cd1146     O1151   2.483       .  S
Cd1146     O1147   2.569       .  S
Cd1146     O1150   2.495       .  S
Cd1146     O1148   2.535       .  S
C1149      O1153   1.261       .  A
O1154      C1157   1.262       .  A
O1154     Cd1159   2.353       .  S
C1155      O1164   1.270       .  A
C1155      O1160   1.263       .  A
O1156      C1162   1.263       .  A
O1156     Cd1159   2.377       .  S
C1157      O1165   1.263       .  A
C1158      O1163   1.272       .  A
Cd1159     O1166   2.372       .  S
Cd1159     O1165   2.390       .  S
Cd1159     O1164   2.427       .  S
Cd1159     O1160   2.340       .  S
Cd1159     O1163   2.371       .  S
C1162      O1166   1.267       .  A
C1162      C1230   1.439       .  S
C1167      C1216   1.497       .  S
C1168      C1223   1.521       .  S
C1168      C1268   1.496       .  S
O1169      C1172   1.272       .  A
C1170      O1179   1.272       .  A
O1171      C1177   1.268       .  A
O1171     Cd1174   2.354       .  S
C1172      C1182   1.566       .  S
C1173      O1176   1.268       .  A
Cd1174     O1605   2.407       .  S
Cd1174     O1180   2.599       .  S
Cd1174     O1603   2.422       .  S
Cd1174     O1387   2.438       .  S
Cd1174     O1178   2.415       .  S
O1175     Cd1386   2.449   1_545  S
C1177      O1605   1.272       .  A
O1179     Cd1598   2.444   1_545  S
O1181      C1601   1.272       .  A
O1181     Cd1598   2.409   1_545  S
C1182      C1199   1.567       .  S
C1182      C1664   1.574       .  S
C1183      C1251   1.524       .  S
C1183      C1184   1.521   1_655  S
C1183      C1189   1.490       .  S
C1183      C1187   1.565       .  S
C1186      C1188   1.560   1_455  S
C1187      H1193   1.083       .  S
C1187      C1188   1.397       .  D
C1188      C1221   1.576       .  S
C1189      H1194   1.094       .  S
C1190      C1196   1.490       .  S
O1195      C1198   1.266       .  A
O1195     Cd1200   2.341       .  S
C1196      O1201   1.259       .  A
O1197      C1203   1.273       .  A
O1197     Cd1200   2.493       .  S
C1198      O1206   1.267       .  A
C1198      C1211   1.420       .  S
C1199      O1204   1.273       .  A
C1199      O1202   1.262       .  A
Cd1200     O1207   2.538       .  S
Cd1200     O1206   2.339       .  S
Cd1200     O1201   2.577       .  S
Cd1200     O1204   2.626       .  S
Cd1200     O1202   2.531       .  S
C1203      C1235   1.523       .  S
C1203      O1207   1.260       .  A
O1208      C1211   1.264       .  A
O1208     Cd1213   2.355       .  S
C1209      O1218   1.272       .  A
C1209      O1214   1.263       .  A
O1210      C1216   1.273       .  A
O1210     Cd1213   2.387       .  S
C1211      O1219   1.264       .  A
C1212      O1217   1.261       .  A
C1212      O1215   1.266       .  A
Cd1213     O1220   2.356       .  S
Cd1213     O1219   2.355       .  S
Cd1213     O1218   2.445       .  S
Cd1213     O1214   2.333       .  S
Cd1213     O1217   2.383       .  S
Cd1213     O1215   2.400       .  S
C1216      O1220   1.266       .  A
C1221      C1225   1.571       .  S
C1221      C1255   1.561       .  S
O1222      C1225   1.274       .  A
O1222     Cd1227   2.597       .  S
C1223      O1232   1.271       .  A
C1223      O1228   1.270       .  A
O1224      C1230   1.267       .  A
O1224     Cd1227   2.364       .  S
C1225      O1233   1.265       .  A
C1226      O1231   1.270       .  A
C1226      O1229   1.269       .  A
Cd1227     O1234   2.396       .  S
Cd1227     O1233   2.629       .  S
Cd1227     O1232   2.431       .  S
Cd1227     O1228   2.452       .  S
Cd1227     O1231   2.433       .  S
Cd1227     O1229   2.469       .  S
C1230      O1234   1.271       .  A
C1235      C1236   1.520       .  S
C1235      C1241   1.494       .  S
C1235      C1239   1.563       .  S
C1237      C1238   1.580       .  S
C1238      C1242   1.584       .  S
C1238      H1668   1.107   1_545  S
C1239      H1245   1.083       .  S
C1239      C1240   1.396       .  D
C1240      C1606   1.574   1_545  S
C1241      H1246   1.093       .  S
C1242      C1250   1.492       .  S
H1244      C1662   1.107       .  S
O1247      C1250   1.258       .  A
O1247     Cd1252   2.580       .  S
C1248      O1257   1.267       .  A
C1248      O1253   1.266       .  A
C1248      C1263   1.424       .  S
O1249      C1255   1.271       .  A
O1249     Cd1252   2.608       .  S
C1250      O1258   1.271       .  A
C1251      O1256   1.273       .  A
C1251      O1254   1.259       .  A
Cd1252     O1259   2.519       .  S
Cd1252     O1258   2.492       .  S
Cd1252     O1681   2.349       .  S
Cd1252     O1677   2.347   1_545  S
Cd1252     O1680   2.499   1_545  S
Cd1252     O1678   2.541   1_545  S
O1253     Cd1676   2.345       .  S
O1254     Cd1676   2.541       .  S
C1255      O1259   1.261       .  A
O1256     Cd1676   2.510       .  S
O1257     Cd1676   2.352       .  S
O1260      C1687   1.263       .  A
O1260     Cd1689   2.364   1_545  S
C1261      O1270   1.272       .  A
C1261      O1266   1.262       .  A
O1262      C1268   1.271       .  A
O1262     Cd1265   2.378       .  S
C1263      O1684   1.263       .  A
C1263      O1271   1.263       .  A
C1264      O1269   1.263       .  A
C1264      O1691   1.266       .  A
C1264      C1543   1.442       .  S
Cd1265     O1684   2.372       .  S
Cd1265     O1272   2.357       .  S
Cd1265     O1271   2.369       .  S
Cd1265     O1694   2.428       .  S
Cd1265     O1690   2.336       .  S
Cd1265     O1269   2.382       .  S
Cd1265     O1691   2.379       .  S
O1266     Cd1689   2.337   1_545  S
O1267      C1688   1.266   1_545  A
O1267     Cd1689   2.380   1_545  S
C1268      O1272   1.267       .  A
O1270     Cd1689   2.444   1_545  S
C1273      C1276   1.518       .  S
C1273      C1322   1.493       .  S
C1273      C1438   1.525       .  S
C1273      C1473   1.500       .  S
C1274      C1328   1.520       .  S
C1274      C1582   1.496       .  S
C1274      C1385   1.526       .  S
C1274      C1421   1.503       .  S
O1275      C1278   1.272       .  A
O1275     Cd1280   2.585       .  S
C1276      O1285   1.270       .  A
C1276      O1281   1.269       .  A
O1277      C1283   1.270       .  A
O1277     Cd1280   2.421       .  S
C1278      C1288   1.567       .  S
C1278      O1286   1.265       .  A
C1279      O1284   1.267       .  A
C1279      O1282   1.272       .  A
C1279      C1424   1.442       .  S
Cd1280     O1287   2.463       .  S
Cd1280     O1286   2.613       .  S
Cd1280     O1285   2.416       .  S
Cd1280     O1281   2.437       .  S
Cd1280     O1284   2.362       .  S
Cd1280     O1282   2.419       .  S
C1283      C1380   1.524       .  S
C1283      O1287   1.268       .  A
C1288      C1309   1.565       .  S
C1288      C1343   1.572       .  S
C1288      C1397   1.585       .  S
C1289      C1357   1.521       .  S
C1289      C1290   1.561       .  S
C1289      C1295   1.491       .  S
C1289      C1293   1.524   1_654  S
C1290      H1297   1.083   1_554  S
C1290      C1291   1.395       .  D
C1291      C1292   1.564   1_655  S
C1293      H1299   1.087       .  S
C1294      C1606   1.584       .  S
C1295      H1300   1.094       .  S
C1296      C1302   1.490       .  S
O1301      C1304   1.267       .  A
C1302      O1307   1.258       .  A
O1303      C1309   1.272       .  A
O1303     Cd1306   2.607       .  S
C1304      O1312   1.267       .  A
C1304      C1315   1.419       .  S
C1305      C1341   1.523       .  S
C1305      O1310   1.272       .  A
C1305      O1308   1.260       .  A
Cd1306     O1313   2.541       .  S
Cd1306     O1307   2.589       .  S
C1309      O1313   1.261       .  A
O1314      C1317   1.262       .  A
C1315      O1324   1.263       .  A
O1316      C1322   1.273       .  A
O1316     Cd1319   2.374       .  S
C1317      C1380   1.501       .  S
C1317      O1325   1.272       .  A
C1318      O1321   1.267   1_545  A
C1318      C1389   1.444       .  S
Cd1319     O1326   2.334       .  S
Cd1319     O1324   2.377       .  S
Cd1319     O1323   2.408       .  S
C1322      O1326   1.267       .  A
O1327      C1330   1.274       .  A
O1327     Cd1332   2.606       .  S
C1328      O1337   1.271       .  A
C1328      O1333   1.269       .  A
O1329      C1335   1.269       .  A
O1329     Cd1332   2.420       .  S
C1330      C1340   1.573       .  S
C1330      O1338   1.265       .  A
C1331      O1336   1.268       .  A
Cd1332     O1339   2.458       .  S
Cd1332     O1338   2.626       .  S
Cd1332     O1336   2.361       .  S
C1335      C1379   1.525       .  S
C1335      O1339   1.269       .  A
C1340      C1573   1.561       .  S
C1340      C1449   1.591       .  S
C1341      C1342   1.562       .  S
C1341      C1347   1.495       .  S
C1341      C1345   1.521       .  S
C1342      H1349   1.083       .  S
C1342      C1343   1.395       .  D
C1344      C1348   1.583       .  S
C1344      C1346   1.579       .  S
C1344      H1350   1.107       .  S
C1346      C1433   1.588       .  S
C1347      H1352   1.093       .  S
C1348      C1354   1.492       .  S
O1353      C1356   1.266       .  A
O1353     Cd1358   2.349       .  S
C1354      O1363   1.271       .  A
C1354      O1359   1.259       .  A
O1355      C1361   1.271       .  A
O1355     Cd1358   2.606       .  S
C1356      O1364   1.268       .  A
C1356      C1369   1.424       .  S
C1357      O1362   1.272       .  A
C1357      O1360   1.259       .  A
Cd1358     O1365   2.519       .  S
Cd1358     O1364   2.348       .  S
Cd1358     O1363   2.490       .  S
Cd1358     O1359   2.582       .  S
Cd1358     O1362   2.499       .  S
Cd1358     O1360   2.541       .  S
C1361      C1552   1.561   1_554  S
C1361      O1365   1.261       .  A
O1366      C1369   1.261       .  A
O1366     Cd1371   2.366       .  S
C1367      C1591   1.499   1_554  S
C1367      O1376   1.271       .  A
C1367      O1372   1.263       .  A
O1368      C1374   1.264       .  A
O1368     Cd1371   2.387       .  S
C1369      O1377   1.263       .  A
C1370      C1486   1.498   1_554  S
C1370      O1375   1.272       .  A
C1370      O1585   1.268       .  A
Cd1371     O1378   2.381       .  S
Cd1371     O1377   2.375       .  S
Cd1371     O1376   2.426       .  S
Cd1371     O1372   2.334       .  S
Cd1371     O1375   2.382       .  S
Cd1371     O1585   2.365       .  S
O1373      C1582   1.267       .  A
O1373     Cd1583   2.363       .  S
C1374      O1378   1.267       .  A
C1374      C1442   1.444       .  S
C1379      C1579   1.499       .  S
C1379      C1594   1.519       .  S
C1379      C1428   1.494       .  S
C1380      C1435   1.521       .  S
C1380      C1480   1.495       .  S
O1381      C1384   1.273       .  A
O1381     Cd1598   2.610       .  S
C1382      C1591   1.520       .  S
C1382      O1391   1.273   1_556  A
C1382      O1599   1.269       .  A
O1383      C1389   1.267   1_565  A
O1383     Cd1386   2.367   1_554  S
C1384      C1394   1.572       .  S
C1384      O1604   1.265       .  A
C1385      O1602   1.269       .  A
C1385      O1388   1.268       .  A
Cd1386     O1593   2.600       .  S
Cd1386     O1392   2.623   1_556  S
Cd1386     O1390   2.425   1_556  S
Cd1386     O1600   2.465       .  S
O1387      C1594   1.270       .  A
O1388     Cd1598   2.472       .  S
O1390      C1597   1.268   1_554  A
O1392      C1596   1.266   1_554  A
C1394      C1411   1.566       .  S
C1394      C1506   1.587       .  S
C1395      C1463   1.523       .  S
C1395      C1396   1.521   1_655  S
C1395      C1401   1.492       .  S
C1395      C1399   1.564       .  S
C1398      C1400   1.562   1_455  S
C1399      H1405   1.083       .  S
C1399      C1400   1.397       .  D
C1400      C1433   1.578       .  S
C1401      H1406   1.094       .  S
C1402      C1408   1.490       .  S
O1407      C1410   1.267       .  A
O1407     Cd1412   2.331       .  S
C1408      O1413   1.258       .  A
O1409      C1415   1.273       .  A
O1409     Cd1412   2.521       .  S
C1410      O1418   1.268       .  A
C1410      C1423   1.423       .  S
C1411      O1416   1.273       .  A
C1411      O1414   1.260       .  A
Cd1412     O1419   2.532       .  S
Cd1412     O1418   2.351       .  S
Cd1412     O1413   2.581       .  S
Cd1412     O1416   2.597       .  S
Cd1412     O1414   2.543       .  S
C1415      C1447   1.525       .  S
C1415      O1419   1.259       .  A
O1420      C1423   1.263       .  A
O1420     Cd1425   2.371       .  S
C1421      O1430   1.271       .  A
C1421      O1426   1.263       .  A
O1422      C1428   1.271       .  A
O1422     Cd1425   2.377       .  S
C1423      O1431   1.264       .  A
C1424      O1429   1.261       .  A
C1424      O1427   1.268       .  A
Cd1425     O1432   2.358       .  S
Cd1425     O1431   2.362       .  S
Cd1425     O1430   2.442       .  S
Cd1425     O1426   2.352       .  S
Cd1425     O1429   2.390       .  S
Cd1425     O1427   2.379       .  S
C1428      O1432   1.266       .  A
C1433      C1437   1.569       .  S
C1433      C1467   1.571       .  S
O1434      C1437   1.273       .  A
O1434     Cd1439   2.592       .  S
C1435      O1444   1.271       .  A
C1435      O1440   1.269       .  A
O1436      C1442   1.268       .  A
O1436     Cd1439   2.379       .  S
C1437      O1445   1.265       .  A
C1438      O1443   1.269       .  A
C1438      O1441   1.268       .  A
Cd1439     O1446   2.409       .  S
Cd1439     O1445   2.621       .  S
Cd1439     O1444   2.417       .  S
Cd1439     O1440   2.451       .  S
Cd1439     O1443   2.418       .  S
Cd1439     O1441   2.467       .  S
C1442      O1446   1.271       .  A
C1447      C1448   1.521       .  S
C1447      C1453   1.491       .  S
C1447      C1451   1.562       .  S
C1449      C1450   1.580       .  S
C1450      C1454   1.586       .  S
C1451      H1457   1.083       .  S
C1451      C1452   1.396       .  D
C1453      H1458   1.093       .  S
C1454      C1462   1.493       .  S
O1459      C1462   1.257       .  A
O1459     Cd1464   2.591       .  S
C1460      O1469   1.267       .  A
C1460      O1465   1.265   1_545  A
C1460      C1475   1.424       .  S
O1461      C1467   1.272       .  A
O1461     Cd1464   2.623       .  S
C1462      O1470   1.272       .  A
C1463      O1468   1.273       .  A
C1463      O1466   1.259       .  A
Cd1464     O1471   2.544       .  S
Cd1464     O1470   2.478       .  S
C1467      O1471   1.262       .  A
C1473      O1482   1.272       .  A
C1473      O1478   1.263       .  A
O1474      C1480   1.272       .  A
O1474     Cd1477   2.383   1_565  S
C1475      O1483   1.264   1_545  A
C1476      O1481   1.263       .  A
Cd1477     O1484   2.361   1_545  S
Cd1477     O1483   2.377   1_545  S
Cd1477     O1481   2.386   1_545  S
C1480      O1484   1.266       .  A
C1485      C1488   1.521       .  S
C1485      C1534   1.494       .  S
C1485      C1650   1.524       .  S
C1485      C1685   1.500       .  S
C1486      C1540   1.520       .  S
C1486      C1597   1.523       .  S
C1486      C1633   1.506       .  S
O1487      C1490   1.272       .  A
O1487     Cd1492   2.610       .  S
C1488      O1497   1.271       .  A
C1488      O1493   1.270       .  A
O1489      C1495   1.270       .  A
O1489     Cd1492   2.413       .  S
C1490      C1500   1.574       .  S
C1490      O1498   1.267       .  A
C1491      O1496   1.266       .  A
C1491      O1494   1.273       .  A
C1491      C1636   1.448       .  S
Cd1492     O1499   2.464       .  S
Cd1492     O1498   2.629       .  S
Cd1492     O1497   2.423       .  S
Cd1492     O1493   2.439       .  S
Cd1492     O1496   2.384       .  S
Cd1492     O1494   2.431       .  S
C1495      C1592   1.523       .  S
C1495      O1499   1.268       .  A
C1500      C1521   1.570       .  S
C1500      C1555   1.574       .  S
C1500      C1609   1.586       .  S
C1501      C1569   1.522       .  S
C1501      C1502   1.563       .  S
C1501      C1507   1.490       .  S
C1501      C1505   1.523   1_655  S
C1502      H1509   1.083       .  S
C1502      C1503   1.394       .  D
C1503      C1504   1.563   1_655  S
C1505      H1511   1.087       .  S
C1507      H1512   1.094       .  S
C1508      C1514   1.492       .  S
O1513      C1516   1.266       .  A
C1514      O1519   1.258       .  A
O1515      C1521   1.274       .  A
O1515     Cd1518   2.610       .  S
C1516      O1524   1.268       .  A
C1516      C1527   1.420       .  S
C1517      C1553   1.522       .  S
C1517      O1522   1.272       .  A
C1517      O1520   1.260       .  A
Cd1518     O1525   2.551       .  S
Cd1518     O1519   2.592       .  S
C1521      O1525   1.260       .  A
O1526      C1529   1.262       .  A
C1527      O1536   1.264       .  A
O1528      C1534   1.273       .  A
O1528     Cd1531   2.368       .  S
C1529      C1592   1.500       .  S
C1529      O1537   1.272       .  A
C1530      O1533   1.267   1_545  A
C1530      C1601   1.443       .  S
Cd1531     O1538   2.344       .  S
Cd1531     O1536   2.370       .  S
Cd1531     O1535   2.401       .  S
C1534      O1538   1.267       .  A
O1539      C1542   1.272   1_554  A
O1539     Cd1544   2.587   1_554  S
C1540      O1549   1.271       .  A
C1540      O1545   1.269   1_556  A
O1541      C1547   1.270       .  A
O1541     Cd1544   2.421       .  S
C1542      C1552   1.568       .  S
C1542      O1550   1.265       .  A
C1543      O1548   1.268       .  A
Cd1544     O1551   2.461       .  S
Cd1544     O1550   2.626       .  S
Cd1544     O1548   2.375       .  S
C1547      C1591   1.527       .  S
C1547      O1551   1.268       .  A
C1552      C1661   1.589       .  S
C1553      C1554   1.563       .  S
C1553      C1559   1.496       .  S
C1553      C1557   1.521       .  S
C1554      H1561   1.083       .  S
C1554      C1555   1.394       .  D
C1556      C1560   1.580       .  S
C1556      C1558   1.577       .  S
C1556      H1562   1.107       .  S
C1558      C1645   1.585       .  S
C1559      H1564   1.093       .  S
C1560      C1566   1.489       .  S
O1565      C1568   1.266       .  A
O1565     Cd1570   2.350       .  S
C1566      O1575   1.270       .  A
C1566      O1571   1.259       .  A
O1567      C1573   1.271       .  A
O1567     Cd1570   2.606       .  S
C1568      O1576   1.268       .  A
C1568      C1581   1.425       .  S
C1569      O1574   1.272       .  A
C1569      O1572   1.259       .  A
Cd1570     O1577   2.516       .  S
Cd1570     O1576   2.349       .  S
Cd1570     O1575   2.475       .  S
Cd1570     O1571   2.581       .  S
Cd1570     O1574   2.503       .  S
Cd1570     O1572   2.536       .  S
C1573      O1577   1.260       .  A
O1578      C1581   1.262       .  A
O1578     Cd1583   2.366       .  S
C1579      O1588   1.271       .  A
C1579      O1584   1.262       .  A
O1580      C1586   1.262       .  A
O1580     Cd1583   2.381       .  S
C1581      O1589   1.263       .  A
C1582      O1587   1.272       .  A
Cd1583     O1590   2.380       .  S
Cd1583     O1589   2.380       .  S
Cd1583     O1588   2.439       .  S
Cd1583     O1584   2.318       .  S
Cd1583     O1587   2.375       .  S
C1586      O1590   1.267       .  A
C1586      C1654   1.442       .  S
C1591      C1640   1.494       .  S
C1592      C1647   1.521       .  S
C1592      C1692   1.494       .  S
O1593      C1596   1.272       .  A
C1594      O1603   1.272       .  A
O1595      C1601   1.268   1_565  A
O1595     Cd1598   2.371       .  S
C1596      C1606   1.570       .  S
C1597      O1600   1.268       .  A
Cd1598     O1604   2.618       .  S
Cd1598     O1602   2.425       .  S
C1606      C1623   1.569       .  S
C1607      C1675   1.522       .  S
C1607      C1608   1.521   1_655  S
C1607      C1613   1.492       .  S
C1607      C1611   1.564       .  S
C1610      C1612   1.564   1_455  S
C1611      H1617   1.083       .  S
C1611      C1612   1.396       .  D
C1612      C1645   1.577       .  S
C1613      H1618   1.093       .  S
C1614      C1620   1.493       .  S
O1619      C1622   1.266       .  A
O1619     Cd1624   2.322       .  S
C1620      O1625   1.258       .  A
O1621      C1627   1.273       .  A
O1621     Cd1624   2.518       .  S
C1622      O1630   1.269       .  A
C1622      C1635   1.423       .  S
C1623      O1628   1.273       .  A
C1623      O1626   1.261       .  A
Cd1624     O1631   2.535       .  S
Cd1624     O1630   2.357       .  S
Cd1624     O1625   2.589       .  S
Cd1624     O1628   2.617       .  S
Cd1624     O1626   2.554       .  S
C1627      C1659   1.525       .  S
C1627      O1631   1.259       .  A
O1632      C1635   1.264       .  A
O1632     Cd1637   2.375       .  S
C1633      O1642   1.271       .  A
C1633      O1638   1.264       .  A
O1634      C1640   1.271       .  A
O1634     Cd1637   2.371       .  S
C1635      O1643   1.264       .  A
C1636      O1641   1.262       .  A
C1636      O1639   1.269       .  A
Cd1637     O1644   2.364       .  S
Cd1637     O1643   2.350       .  S
Cd1637     O1642   2.443       .  S
Cd1637     O1638   2.361       .  S
Cd1637     O1641   2.394       .  S
Cd1637     O1639   2.393       .  S
C1640      O1644   1.267       .  A
C1645      C1649   1.571       .  S
C1645      C1679   1.565       .  S
O1646      C1649   1.272       .  A
O1646     Cd1651   2.596       .  S
C1647      O1656   1.271       .  A
C1647      O1652   1.270       .  A
O1648      C1654   1.267       .  A
O1648     Cd1651   2.374       .  S
C1649      O1657   1.266       .  A
C1650      O1655   1.269       .  A
C1650      O1653   1.269       .  A
Cd1651     O1658   2.405       .  S
Cd1651     O1657   2.626       .  S
Cd1651     O1656   2.420       .  S
Cd1651     O1652   2.443       .  S
Cd1651     O1655   2.422       .  S
Cd1651     O1653   2.462       .  S
C1654      O1658   1.271       .  A
C1659      C1660   1.522       .  S
C1659      C1665   1.492       .  S
C1659      C1663   1.564       .  S
C1661      C1662   1.580       .  S
C1662      C1666   1.581       .  S
C1663      H1669   1.083       .  S
C1663      C1664   1.396       .  D
C1665      H1670   1.093       .  S
C1666      C1674   1.489       .  S
O1671      C1674   1.258       .  A
O1671     Cd1676   2.577       .  S
C1672      O1681   1.268       .  A
C1672      O1677   1.266   1_545  A
C1672      C1687   1.424       .  S
O1673      C1679   1.272       .  A
O1673     Cd1676   2.609       .  S
C1674      O1682   1.272       .  A
C1675      O1680   1.272       .  A
C1675      O1678   1.259       .  A
Cd1676     O1683   2.538       .  S
Cd1676     O1682   2.466       .  S
C1679      O1683   1.262       .  A
C1685      O1694   1.271       .  A
C1685      O1690   1.264       .  A
O1686      C1692   1.272       .  A
O1686     Cd1689   2.376       .  S
C1687      O1695   1.263   1_545  A
C1688      O1693   1.262       .  A
Cd1689     O1696   2.362       .  S
Cd1689     O1695   2.370       .  S
Cd1689     O1693   2.396       .  S
C1692      O1696   1.266       .  A
